_AT1
  DSViewer          3D                             0

 72 76  0  0  0  0  0  0  0  0999 V2000
    0.4504  -11.0180   -0.2934 C   0  0
    0.9539  -11.1099    1.0175 O   0  0
    1.2281   -9.9420    1.7436 C   0  0
    2.2412   -9.9262    2.6937 C   0  0
    2.5210   -8.7851    3.4151 C   0  0
    1.7771   -7.6534    3.1787 C   0  0
    0.7528   -7.6253    2.2364 C   0  0
   -0.0552   -6.4138    1.9941 C   0  0
    0.5642   -5.6174    0.9539 N   0  0
    1.4724   -4.6345    1.0505 C   0  0
    1.7790   -4.1715   -0.2131 C   0  0
    2.7988   -3.1468   -0.5357 C   0  0
    2.9867   -2.7992   -1.7304 O   0  0
    3.5549   -2.5537    0.4810 N   0  0
    4.5531   -1.5626    0.3193 C   0  0
    5.1159   -1.4320   -0.9586 C   0  0
    6.0731   -0.4826   -1.2304 C   0  0
    6.5259    0.3868   -0.2636 C   0  0
    7.5732    1.4173   -0.5713 C   0  0
    5.9814    0.2682    0.9928 C   0  0
    6.5445    1.3792    2.2172 S   0  0
    5.4596    2.3602    2.6017 O   0  0
    7.6247    2.2359    1.5634 O   0  0
    7.2529    0.6243    3.5382 N   0  0
    6.4490    0.2663    4.6352 C   0  0
    7.3725    0.0653    5.8381 C   0  0
    8.2957   -0.9266    5.6442 O   0  0
    8.7072   -1.0996    4.3587 C   0  0
    8.5211    0.0460    3.4261 C   0  0
    5.0056   -0.7021    1.2670 C   0  0
    1.0263   -4.9017   -1.0917 C   0  0
    0.9510   -4.7929   -2.5551 C   0  0
    2.0359   -4.3617   -3.2789 C   0  0
    2.0135   -4.2693   -4.6625 C   0  0
    0.8713   -4.6207   -5.3362 C   0  0
    0.7881   -4.5305   -6.8324 C   0  0
   -0.2425   -5.0626   -4.6151 C   0  0
   -0.1922   -5.1420   -3.2635 C   0  0
    0.3052   -5.7697   -0.3248 N   0  0
    0.5117   -8.7987    1.5377 C   0  0
    0.3025  -12.0013   -0.6885 H   0  0
    1.1485  -10.4882   -0.9073 H   0  0
   -0.4828  -10.4945   -0.2812 H   0  0
    2.8133  -10.8134    2.8685 H   0  0
    3.3029   -8.7804    4.1456 H   0  0
    1.9922   -6.7661    3.7366 H   0  0
   -0.1148   -5.8392    2.8948 H   0  0
   -1.0399   -6.6979    1.6865 H   0  0
    1.8928   -4.2673    1.9634 H   0  0
    3.3667   -2.8695    1.4431 H   0  0
    4.7929   -2.0868   -1.7408 H   0  0
    6.4765   -0.4179   -2.2193 H   0  0
    7.1004    2.3199   -0.8979 H   0  0
    8.2168    1.0520   -1.3442 H   0  0
    8.1490    1.6145    0.3087 H   0  0
    5.9241   -0.6415    4.4223 H   0  0
    5.7451    1.0453    4.8415 H   0  0
    6.7744   -0.1872    6.6887 H   0  0
    7.8914    0.9819    6.0264 H   0  0
    8.1685   -1.9325    3.9574 H   0  0
    9.7520   -1.3289    4.3829 H   0  0
    8.6523   -0.3027    2.4231 H   0  0
    9.2585    0.7900    3.6444 H   0  0
    4.6044   -0.7660    2.2568 H   0  0
    2.9290   -4.0876   -2.7573 H   0  0
    2.8754   -3.9286   -5.1972 H   0  0
    1.1048   -5.4571   -7.2638 H   0  0
    1.4223   -3.7410   -7.1780 H   0  0
   -0.2221   -4.3291   -7.1219 H   0  0
   -1.1374   -5.3389   -5.1326 H   0  0
   -1.0542   -5.4819   -2.7284 H   0  0
   -0.2691   -8.8082    0.8062 H   0  0
  1  2  1  0  0  0
  1 41  1  0  0  0
  1 42  1  0  0  0
  1 43  1  0  0  0
  2  3  1  0  0  0
  3  4  2  0  0  0
  4  5  1  0  0  0
  4 44  1  0  0  0
  5  6  2  0  0  0
  5 45  1  0  0  0
  6  7  1  0  0  0
  6 46  1  0  0  0
  7 40  2  0  0  0
  7  8  1  0  0  0
  8  9  1  0  0  0
  8 47  1  0  0  0
  8 48  1  0  0  0
  9 10  1  0  0  0
 10 11  2  0  0  0
 10 49  1  0  0  0
 11 31  1  0  0  0
 11 12  1  0  0  0
 12 14  1  0  0  0
 12 13  2  0  0  0
 14 15  1  0  0  0
 14 50  1  0  0  0
 15 16  2  0  0  0
 16 17  1  0  0  0
 16 51  1  0  0  0
 17 18  2  0  0  0
 17 52  1  0  0  0
 18 20  1  0  0  0
 18 19  1  0  0  0
 19 53  1  0  0  0
 19 54  1  0  0  0
 19 55  1  0  0  0
 20 30  2  0  0  0
 20 21  1  0  0  0
 21 24  1  0  0  0
 21 23  2  0  0  0
 21 22  2  0  0  0
 24 25  1  0  0  0
 25 26  1  0  0  0
 25 56  1  0  0  0
 25 57  1  0  0  0
 26 27  1  0  0  0
 26 58  1  0  0  0
 26 59  1  0  0  0
 27 28  1  0  0  0
 28 29  1  0  0  0
 28 60  1  0  0  0
 28 61  1  0  0  0
 29 24  1  0  0  0
 29 62  1  0  0  0
 29 63  1  0  0  0
 30 15  1  0  0  0
 30 64  1  0  0  0
 31 39  2  0  0  0
 31 32  1  0  0  0
 32 33  2  0  0  0
 33 34  1  0  0  0
 33 65  1  0  0  0
 34 35  2  0  0  0
 34 66  1  0  0  0
 35 37  1  0  0  0
 35 36  1  0  0  0
 36 67  1  0  0  0
 36 68  1  0  0  0
 36 69  1  0  0  0
 37 38  2  0  0  0
 37 70  1  0  0  0
 38 32  1  0  0  0
 38 71  1  0  0  0
 39  9  1  0  0  0
 40  3  1  0  0  0
 40 72  1  0  0  0
M  END
> <activity>
8.125

> <prediction>
7.44268

$$$$
_AT2
  DSViewer          3D                             0

 74 79  0  0  0  0  0  0  0  0999 V2000
   10.6131   -8.9351   -0.1095 C   0  0
    9.2676   -8.2869   -0.1808 C   0  0
    8.1528   -9.0189   -0.5323 C   0  0
    6.8834   -8.4729   -0.6182 C   0  0
    6.7153   -7.1152   -0.3364 C   0  0
    5.3954   -6.5149   -0.4247 C   0  0
    4.3033   -7.2622   -0.7825 N   0  0
    3.2205   -6.5128   -0.8176 N   0  0
    1.8923   -7.0047   -1.1646 C   0  0
    1.1525   -7.4639    0.0156 C   0  0
    0.7277   -8.7500    0.1043 C   0  0
    0.0376   -9.1779    1.2176 C   0  0
   -0.2046   -8.2726    2.2236 C   0  0
   -0.8938   -8.6646    3.3592 C   0  0
   -1.1413   -7.7578    4.3796 C   0  0
   -0.7072   -6.4566    4.2817 C   0  0
   -0.0204   -6.0425    3.1633 C   0  0
    0.2237   -6.9651    2.1403 C   0  0
    0.9056   -6.5733    1.0222 C   0  0
    3.5924   -5.2712   -0.4832 C   0  0
    4.9697   -5.2354   -0.2247 C   0  0
    5.7362   -4.0909    0.2299 C   0  0
    6.7725   -4.3294    0.9408 O   0  0
    5.4009   -2.7739   -0.0717 N   0  0
    6.0620   -1.6017    0.3054 C   0  0
    7.3932   -1.6891    0.7064 C   0  0
    8.1156   -0.5834    1.0738 C   0  0
    7.5440    0.6687    1.0591 C   0  0
    8.3975    1.8057    1.4747 C   0  0
    6.2451    0.8001    0.6734 C   0  0
    5.4775    2.3511    0.6217 S   0  0
    4.0312    2.1838    0.1757 O   0  0
    5.3709    2.9575    2.0176 O   0  0
    6.1967    3.4869   -0.3994 N   0  0
    6.4863    3.0711   -1.7175 C   0  0
    7.0841    4.1911   -2.5305 C   0  0
    6.1706    5.2460   -2.5343 O   0  0
    6.1901    5.7854   -1.2528 C   0  0
    5.7701    4.8253   -0.1995 C   0  0
    5.5372   -0.3329    0.3073 C   0  0
    7.8264   -6.3893    0.0133 C   0  0
    9.0870   -6.9413    0.0964 C   0  0
   11.0932   -8.8661   -1.0632 H   0  0
   10.4992   -9.9647    0.1588 H   0  0
   11.2096   -8.4385    0.6270 H   0  0
    8.2749  -10.0596   -0.7492 H   0  0
    6.0468   -9.0796   -0.8954 H   0  0
    1.9938   -7.8215   -1.8483 H   0  0
    1.3421   -6.2148   -1.6318 H   0  0
    0.9295   -9.4342   -0.6932 H   0  0
   -0.3014  -10.1897    1.2972 H   0  0
   -1.2378   -9.6737    3.4501 H   0  0
   -1.6751   -8.0740    5.2514 H   0  0
   -0.9036   -5.7660    5.0751 H   0  0
    0.3210   -5.0321    3.0777 H   0  0
    1.2480   -5.5634    0.9347 H   0  0
    2.9348   -4.4294   -0.4221 H   0  0
    4.5562   -2.6468   -0.6472 H   0  0
    7.8664   -2.6485    0.7283 H   0  0
    9.1360   -0.6951    1.3756 H   0  0
    8.9016    2.2046    0.6194 H   0  0
    9.1192    1.4676    2.1886 H   0  0
    7.7881    2.5663    1.9164 H   0  0
    5.5812    2.7456   -2.1863 H   0  0
    7.1813    2.2584   -1.6810 H   0  0
    7.2624    3.8596   -3.5321 H   0  0
    8.0062    4.5090   -2.0906 H   0  0
    5.5279    6.6255   -1.2288 H   0  0
    7.1865    6.1103   -1.0372 H   0  0
    4.7011    4.8292   -0.1548 H   0  0
    6.1674    5.1637    0.7347 H   0  0
    4.5174   -0.2117    0.0071 H   0  0
    7.7090   -5.3483    0.2311 H   0  0
    9.9225   -6.3332    0.3738 H   0  0
  1  2  1  0  0  0
  1 43  1  0  0  0
  1 44  1  0  0  0
  1 45  1  0  0  0
  2  3  2  0  0  0
  3  4  1  0  0  0
  3 46  1  0  0  0
  4  5  2  0  0  0
  4 47  1  0  0  0
  5 41  1  0  0  0
  5  6  1  0  0  0
  6  7  2  0  0  0
  7  8  1  0  0  0
  8 20  1  0  0  0
  8  9  1  0  0  0
  9 10  1  0  0  0
  9 48  1  0  0  0
  9 49  1  0  0  0
 10 11  2  0  0  0
 11 12  1  0  0  0
 11 50  1  0  0  0
 12 13  2  0  0  0
 12 51  1  0  0  0
 13 14  1  0  0  0
 14 15  2  0  0  0
 14 52  1  0  0  0
 15 16  1  0  0  0
 15 53  1  0  0  0
 16 17  2  0  0  0
 16 54  1  0  0  0
 17 18  1  0  0  0
 17 55  1  0  0  0
 18 19  2  0  0  0
 18 13  1  0  0  0
 19 10  1  0  0  0
 19 56  1  0  0  0
 20 21  2  0  0  0
 20 57  1  0  0  0
 21 22  1  0  0  0
 21  6  1  0  0  0
 22 24  1  0  0  0
 22 23  2  0  0  0
 24 25  1  0  0  0
 24 58  1  0  0  0
 25 26  2  0  0  0
 26 27  1  0  0  0
 26 59  1  0  0  0
 27 28  2  0  0  0
 27 60  1  0  0  0
 28 30  1  0  0  0
 28 29  1  0  0  0
 29 61  1  0  0  0
 29 62  1  0  0  0
 29 63  1  0  0  0
 30 40  2  0  0  0
 30 31  1  0  0  0
 31 34  1  0  0  0
 31 33  2  0  0  0
 31 32  2  0  0  0
 34 35  1  0  0  0
 35 36  1  0  0  0
 35 64  1  0  0  0
 35 65  1  0  0  0
 36 37  1  0  0  0
 36 66  1  0  0  0
 36 67  1  0  0  0
 37 38  1  0  0  0
 38 39  1  0  0  0
 38 68  1  0  0  0
 38 69  1  0  0  0
 39 34  1  0  0  0
 39 70  1  0  0  0
 39 71  1  0  0  0
 40 25  1  0  0  0
 40 72  1  0  0  0
 41 42  2  0  0  0
 41 73  1  0  0  0
 42  2  1  0  0  0
 42 74  1  0  0  0
M  END
> <activity>
7.991

> <prediction>
7.7837

$$$$
_AT3
  DSViewer          3D                             0

 65 69  0  0  0  0  0  0  0  0999 V2000
   -1.0934    0.0211    0.4825 C   0  0
   -0.0707    0.6526   -0.3970 C   0  0
   -0.3550    0.9911   -1.7099 C   0  0
    0.6119    1.5724   -2.4976 C   0  0
    1.8910    1.8474   -2.0425 C   0  0
    2.8862    2.4324   -2.9477 C   0  0
    2.5590    3.2540   -3.9941 N   0  0
    3.6271    3.6226   -4.6619 N   0  0
    3.6712    4.4872   -5.8216 C   0  0
    2.7564    5.4675   -6.0256 C   0  0
    2.8552    6.2640   -7.1456 C   0  0
    3.8771    6.0703   -8.0586 C   0  0
    4.8164    5.0730   -7.8605 C   0  0
    6.1245    4.8127   -9.0130 Cl  0  0
    4.6829    4.3053   -6.7376 C   0  0
    4.6807    3.0454   -4.0609 C   0  0
    4.2392    2.2862   -2.9699 C   0  0
    5.1297    1.5723   -2.0504 C   0  0
    6.2834    2.0807   -1.8578 O   0  0
    4.8093    0.3968   -1.3771 N   0  0
    3.6012   -0.3340   -1.4574 C   0  0
    2.7476   -0.1451   -2.5601 C   0  0
    1.5694   -0.8228   -2.7210 C   0  0
    1.1769   -1.7361   -1.7781 C   0  0
   -0.0913   -2.5122   -1.8870 C   0  0
    1.9769   -1.9622   -0.6745 C   0  0
    1.5244   -3.1017    0.5682 S   0  0
    0.2176   -2.6270    1.1804 O   0  0
    1.2419   -4.4678    0.0085 O   0  0
    2.7147   -3.1208    1.7831 N   0  0
    3.0757   -1.8196    2.2476 C   0  0
    3.8954   -1.9920    3.5109 C   0  0
    4.5933   -3.1931    3.4973 O   0  0
    3.7559   -4.2980    3.5951 C   0  0
    2.4467   -4.0562    2.8475 C   0  0
    3.1580   -1.2613   -0.5441 C   0  0
    2.1702    1.5086   -0.7349 C   0  0
    1.1955    0.9182    0.0727 C   0  0
   -1.0337   -1.0433    0.3916 H   0  0
   -2.0684    0.3500    0.1889 H   0  0
   -0.9129    0.3030    1.4988 H   0  0
   -1.3280    0.8003   -2.1121 H   0  0
    0.3644    1.8236   -3.5079 H   0  0
    1.9645    5.6210   -5.3226 H   0  0
    2.1359    7.0386   -7.3109 H   0  0
    3.9416    6.6962   -8.9240 H   0  0
    5.3968    3.5277   -6.5625 H   0  0
    5.7002    3.1495   -4.3684 H   0  0
    5.5330    0.0169   -0.7504 H   0  0
    3.0336    0.5631   -3.3094 H   0  0
    0.9574   -0.6402   -3.5795 H   0  0
    0.0933   -3.4248   -2.4141 H   0  0
   -0.8185   -1.9343   -2.4181 H   0  0
   -0.4587   -2.7343   -0.9070 H   0  0
    2.1945   -1.2510    2.4598 H   0  0
    3.6553   -1.3148    1.5032 H   0  0
    3.2401   -1.9788    4.3566 H   0  0
    4.5928   -1.1841    3.5873 H   0  0
    3.5411   -4.4848    4.6266 H   0  0
    4.2482   -5.1493    3.1735 H   0  0
    1.7160   -3.6491    3.5148 H   0  0
    2.0843   -4.9770    2.4405 H   0  0
    3.7641   -1.4503    0.3172 H   0  0
    3.1440    1.7002   -0.3350 H   0  0
    1.4397    0.6658    1.0834 H   0  0
  1  2  1  0  0  0
  1 39  1  0  0  0
  1 40  1  0  0  0
  1 41  1  0  0  0
  2  3  2  0  0  0
  3  4  1  0  0  0
  3 42  1  0  0  0
  4  5  2  0  0  0
  4 43  1  0  0  0
  5 37  1  0  0  0
  5  6  1  0  0  0
  6  7  2  0  0  0
  7  8  1  0  0  0
  8 16  1  0  0  0
  8  9  1  0  0  0
  9 10  2  0  0  0
 10 11  1  0  0  0
 10 44  1  0  0  0
 11 12  2  0  0  0
 11 45  1  0  0  0
 12 13  1  0  0  0
 12 46  1  0  0  0
 13 15  2  0  0  0
 13 14  1  0  0  0
 15  9  1  0  0  0
 15 47  1  0  0  0
 16 17  2  0  0  0
 16 48  1  0  0  0
 17 18  1  0  0  0
 17  6  1  0  0  0
 18 20  1  0  0  0
 18 19  2  0  0  0
 20 21  1  0  0  0
 20 49  1  0  0  0
 21 22  2  0  0  0
 22 23  1  0  0  0
 22 50  1  0  0  0
 23 24  2  0  0  0
 23 51  1  0  0  0
 24 26  1  0  0  0
 24 25  1  0  0  0
 25 52  1  0  0  0
 25 53  1  0  0  0
 25 54  1  0  0  0
 26 36  2  0  0  0
 26 27  1  0  0  0
 27 30  1  0  0  0
 27 29  2  0  0  0
 27 28  2  0  0  0
 30 31  1  0  0  0
 31 32  1  0  0  0
 31 55  1  0  0  0
 31 56  1  0  0  0
 32 33  1  0  0  0
 32 57  1  0  0  0
 32 58  1  0  0  0
 33 34  1  0  0  0
 34 35  1  0  0  0
 34 59  1  0  0  0
 34 60  1  0  0  0
 35 30  1  0  0  0
 35 61  1  0  0  0
 35 62  1  0  0  0
 36 21  1  0  0  0
 36 63  1  0  0  0
 37 38  2  0  0  0
 37 64  1  0  0  0
 38  2  1  0  0  0
 38 65  1  0  0  0
M  END
> <activity>
7.983

> <prediction>
7.71447

$$$$
_AT4
  DSViewer          3D                             0

 65 69  0  0  0  0  0  0  0  0999 V2000
    3.3545   -0.0840    3.8833 C   0  0
    2.1033   -0.2742    3.0899 C   0  0
    1.6622   -1.5570    2.8276 C   0  0
    0.4937   -1.7739    2.0956 C   0  0
   -0.2279   -0.7064    1.6293 C   0  0
   -1.4236   -0.9084    0.8477 C   0  0
   -2.2543   -1.9668    0.9503 N   0  0
   -3.2467   -1.8943    0.1009 N   0  0
   -4.2844   -2.8587   -0.0173 C   0  0
   -5.2962   -2.7422   -0.9360 C   0  0
   -6.2769   -3.6972   -1.0131 C   0  0
   -6.2965   -4.8047   -0.1859 C   0  0
   -7.5704   -5.9956   -0.3258 Cl  0  0
   -5.2672   -4.8985    0.7297 C   0  0
   -4.2713   -3.9500    0.8243 C   0  0
   -3.0071   -4.1611    2.0223 Cl  0  0
   -3.0802   -0.7547   -0.5943 C   0  0
   -1.9331   -0.1055   -0.1423 C   0  0
   -1.4896    1.2010   -0.6221 C   0  0
   -2.3711    2.0051   -0.9902 O   0  0
   -0.1365    1.5798   -0.6779 N   0  0
    0.9840    0.7926   -0.3154 C   0  0
    0.8088   -0.5990   -0.2594 C   0  0
    1.8626   -1.4164    0.0625 C   0  0
    3.1142   -0.9248    0.3398 C   0  0
    4.1981   -1.8857    0.6819 C   0  0
    3.3092    0.4337    0.2906 C   0  0
    4.8783    1.1132    0.6107 S   0  0
    4.8326    2.1303    1.7169 O   0  0
    5.3794    1.8526   -0.6169 O   0  0
    6.0454   -0.0966    0.9686 N   0  0
    6.7394   -0.5858   -0.1761 C   0  0
    7.9444   -1.3786    0.3562 C   0  0
    7.6500   -1.9775    1.5563 O   0  0
    7.4193   -1.1269    2.6066 C   0  0
    6.8876    0.2029    2.0821 C   0  0
    2.2355    1.2428   -0.0352 C   0  0
    0.2206    0.5818    1.8957 C   0  0
    1.3699    0.7858    2.6161 C   0  0
    4.1948   -0.0507    3.2216 H   0  0
    3.4708   -0.8990    4.5667 H   0  0
    3.2943    0.8339    4.4298 H   0  0
    2.2227   -2.3935    3.1895 H   0  0
    0.1619   -2.7720    1.8989 H   0  0
   -5.3204   -1.9008   -1.5965 H   0  0
   -7.0544   -3.5813   -1.7390 H   0  0
   -5.2415   -5.7394    1.3909 H   0  0
   -3.7262   -0.4026   -1.3713 H   0  0
    0.0610    2.5315   -1.0188 H   0  0
   -0.1506   -1.0241   -0.4687 H   0  0
    1.7035   -2.4738    0.0988 H   0  0
    4.7022   -2.1878   -0.2122 H   0  0
    3.7755   -2.7443    1.1606 H   0  0
    4.8956   -1.4158    1.3434 H   0  0
    7.0717    0.2294   -0.7843 H   0  0
    6.1014   -1.2233   -0.7517 H   0  0
    8.7697   -0.7112    0.4916 H   0  0
    8.2085   -2.1327   -0.3554 H   0  0
    8.3335   -0.9604    3.1370 H   0  0
    6.6986   -1.5632    3.2662 H   0  0
    7.6995    0.8271    1.7718 H   0  0
    6.3260    0.7010    2.8446 H   0  0
    2.4022    2.2992   -0.0691 H   0  0
   -0.3356    1.4220    1.5356 H   0  0
    1.6997    1.7847    2.8115 H   0  0
  1  2  1  0  0  0
  1 40  1  0  0  0
  1 41  1  0  0  0
  1 42  1  0  0  0
  2  3  2  0  0  0
  3  4  1  0  0  0
  3 43  1  0  0  0
  4  5  2  0  0  0
  4 44  1  0  0  0
  5 38  1  0  0  0
  5  6  1  0  0  0
  6  7  2  0  0  0
  7  8  1  0  0  0
  8 17  1  0  0  0
  8  9  1  0  0  0
  9 10  2  0  0  0
 10 11  1  0  0  0
 10 45  1  0  0  0
 11 12  2  0  0  0
 11 46  1  0  0  0
 12 14  1  0  0  0
 12 13  1  0  0  0
 14 15  2  0  0  0
 14 47  1  0  0  0
 15 16  1  0  0  0
 15  9  1  0  0  0
 17 18  2  0  0  0
 17 48  1  0  0  0
 18 19  1  0  0  0
 18  6  1  0  0  0
 19 21  1  0  0  0
 19 20  2  0  0  0
 21 22  1  0  0  0
 21 49  1  0  0  0
 22 23  2  0  0  0
 23 24  1  0  0  0
 23 50  1  0  0  0
 24 25  2  0  0  0
 24 51  1  0  0  0
 25 27  1  0  0  0
 25 26  1  0  0  0
 26 52  1  0  0  0
 26 53  1  0  0  0
 26 54  1  0  0  0
 27 37  2  0  0  0
 27 28  1  0  0  0
 28 31  1  0  0  0
 28 30  2  0  0  0
 28 29  2  0  0  0
 31 32  1  0  0  0
 32 33  1  0  0  0
 32 55  1  0  0  0
 32 56  1  0  0  0
 33 34  1  0  0  0
 33 57  1  0  0  0
 33 58  1  0  0  0
 34 35  1  0  0  0
 35 36  1  0  0  0
 35 59  1  0  0  0
 35 60  1  0  0  0
 36 31  1  0  0  0
 36 61  1  0  0  0
 36 62  1  0  0  0
 37 22  1  0  0  0
 37 63  1  0  0  0
 38 39  2  0  0  0
 38 64  1  0  0  0
 39  2  1  0  0  0
 39 65  1  0  0  0
M  END
> <activity>
7.851

> <prediction>
7.42342

$$$$
_AT5
  SciTegic01182412303D

 67 72  0  0  0  0            999 V2000
    1.1895    0.1614  -11.9351 C   0  0  0  0  0  4
    1.4546    1.0224  -10.7614 C   0  0  0  0  0  4
    2.7247    0.9967  -10.2205 C   0  0  0  0  0  4
    3.0121    1.7802   -9.1283 C   0  0  0  0  0  4
    2.0310    2.5815   -8.5855 C   0  0  0  0  0  4
    2.3937    3.3666   -7.3824 C   0  0  0  0  0  4
    1.8619    4.5672   -7.0576 N   0  0  0  0  0  3
    2.3806    5.0318   -5.9591 N   0  0  0  0  0  3
    2.1008    6.2608   -5.2555 C   0  0  0  0  0  4
    2.1786    6.4976   -3.9577 N   0  0  0  0  0  3
    1.8881    7.6821   -3.4896 C   0  0  0  0  0  4
    1.9331    8.0597   -2.1286 C   0  0  0  0  0  4
    1.6027    9.3342   -1.7879 C   0  0  0  0  0  4
    1.2222   10.3038   -2.6676 C   0  0  0  0  0  4
    1.1743    9.9494   -3.9957 C   0  0  0  0  0  4
    1.5082    8.6402   -4.3914 C   0  0  0  0  0  4
    1.5944    7.7688   -5.8667 S   0  0  0  0  0  2
    3.2714    4.1344   -5.5389 C   0  0  0  0  0  4
    3.3023    3.0461   -6.4349 C   0  0  0  0  0  4
    4.1288    1.8610   -6.2057 C   0  0  0  0  0  4
    4.5639    1.2281   -7.2112 O   0  0  0  0  0  2
    4.4600    1.4045   -4.9346 N   0  0  0  0  0  3
    4.0772    1.9420   -3.6807 C   0  0  0  0  0  4
    2.9562    2.7857   -3.6356 C   0  0  0  0  0  4
    2.5161    3.3301   -2.4583 C   0  0  0  0  0  4
    3.1505    3.0816   -1.2360 C   0  0  0  0  0  4
    2.6253    3.7129    0.0050 C   0  0  0  0  0  4
    4.2407    2.2633   -1.2618 C   0  0  0  0  0  4
    5.1247    1.8417    0.1768 S   0  0  0  0  0  6
    6.5743    2.2901    0.0472 O   0  0  0  0  0  2
    4.5909    2.5726    1.3835 O   0  0  0  0  0  2
    5.1758    0.1685    0.5204 N   0  0  0  0  0  3
    6.2961   -0.4347   -0.0811 C   0  0  0  0  0  4
    7.0396   -1.3024    0.8718 C   0  0  0  0  0  4
    6.1363   -2.1552    1.4946 O   0  0  0  0  0  2
    5.2829   -1.4831    2.3559 C   0  0  0  0  0  4
    4.8084   -0.1729    1.8325 C   0  0  0  0  0  4
    4.6821    1.7113   -2.4783 C   0  0  0  0  0  4
    0.7802    2.6073   -9.1179 C   0  0  0  0  0  4
    0.4777    1.8328  -10.2062 C   0  0  0  0  0  4
    0.8491   -0.7976  -11.6044 H   0  0  0  0  0  1
    2.0894    0.0444  -12.5021 H   0  0  0  0  0  1
    0.4384    0.6147  -12.5477 H   0  0  0  0  0  1
    3.4800    0.3713  -10.6486 H   0  0  0  0  0  1
    3.9932    1.7680   -8.7014 H   0  0  0  0  0  1
    2.2224    7.3541   -1.3780 H   0  0  0  0  0  1
    1.6447    9.5957   -0.7512 H   0  0  0  0  0  1
    0.9730   11.2918   -2.3409 H   0  0  0  0  0  1
    0.8825   10.6706   -4.7303 H   0  0  0  0  0  1
    3.8709    4.2255   -4.6573 H   0  0  0  0  0  1
    5.0605    0.5685   -4.9002 H   0  0  0  0  0  1
    2.4334    3.0088   -4.5422 H   0  0  0  0  0  1
    1.6569    3.9677   -2.4737 H   0  0  0  0  0  1
    1.8980    3.0683    0.4528 H   0  0  0  0  0  1
    2.1701    4.6505   -0.2369 H   0  0  0  0  0  1
    3.4301    3.8738    0.6915 H   0  0  0  0  0  1
    6.9531    0.3321   -0.4351 H   0  0  0  0  0  1
    5.9663   -1.0308   -0.9063 H   0  0  0  0  0  1
    7.5272   -0.6958    1.6061 H   0  0  0  0  0  1
    7.7701   -1.8766    0.3413 H   0  0  0  0  0  1
    5.8001   -1.3110    3.2767 H   0  0  0  0  0  1
    4.4296   -2.1029    2.5367 H   0  0  0  0  0  1
    5.1883    0.5888    2.4809 H   0  0  0  0  0  1
    3.7393   -0.1776    1.8758 H   0  0  0  0  0  1
    5.5413    1.0738   -2.4604 H   0  0  0  0  0  1
    0.0294    3.2349   -8.6851 H   0  0  0  0  0  1
   -0.5067    1.8535  -10.6249 H   0  0  0  0  0  1
  1  2  1  0
  1 41  1  0
  1 42  1  0
  1 43  1  0
  2  3  2  0
  3  4  1  0
  3 44  1  0
  4  5  2  0
  4 45  1  0
  5 39  1  0
  5  6  1  0
  6  7  2  0
  7  8  1  0
  8 18  1  0
  8  9  1  0
  9 10  2  0
 10 11  1  0
 11 12  2  0
 12 13  1  0
 12 46  1  0
 13 14  2  0
 13 47  1  0
 14 15  1  0
 14 48  1  0
 15 16  2  0
 15 49  1  0
 16 17  1  0
 16 11  1  0
 17  9  1  0
 18 19  2  0
 18 50  1  0
 19 20  1  0
 19  6  1  0
 20 22  1  0
 20 21  2  0
 22 23  1  0
 22 51  1  0
 23 24  2  0
 24 25  1  0
 24 52  1  0
 25 26  2  0
 25 53  1  0
 26 28  1  0
 26 27  1  0
 27 54  1  0
 27 55  1  0
 27 56  1  0
 28 38  2  0
 28 29  1  0
 29 32  1  0
 29 31  2  0
 29 30  2  0
 32 33  1  0
 33 34  1  0
 33 57  1  0
 33 58  1  0
 34 35  1  0
 34 59  1  0
 34 60  1  0
 35 36  1  0
 36 37  1  0
 36 61  1  0
 36 62  1  0
 37 32  1  0
 37 63  1  0
 37 64  1  0
 38 23  1  0
 38 65  1  0
 39 40  2  0
 39 66  1  0
 40  2  1  0
 40 67  1  0
M  END
> <Name>
_AT5

> <activity>
7.752

> <prediction>
7.47780809523809

$$$$
_AT6
  SciTegic01182412303D

 71 75  0  0  0  0            999 V2000
   -3.9688    0.5729    4.1891 C   0  0  0  0  0  4
   -2.5789    0.4669    3.6439 C   0  0  0  0  0  4
   -2.0986   -0.6495    3.0243 C   0  0  0  0  0  4
   -0.8305   -0.7484    2.4946 C   0  0  0  0  0  4
    0.0316    0.3389    2.5800 C   0  0  0  0  0  4
    1.3643    0.3406    1.9649 C   0  0  0  0  0  4
    1.9668    1.4766    1.5032 N   0  0  0  0  0  3
    3.1076    1.2276    0.9547 N   0  0  0  0  0  3
    4.0328    2.2142    0.3740 C   0  0  0  0  0  4
    5.4341    1.7894    0.4890 C   0  0  0  0  0  4
    5.8545    0.9847    1.5379 C   0  0  0  0  0  4
    7.1577    0.5829    1.6817 C   0  0  0  0  0  4
    8.0761    1.0137    0.7244 C   0  0  0  0  0  4
    7.7015    1.8105   -0.3274 C   0  0  0  0  0  4
    8.6913    2.2757   -1.3258 C   0  0  0  0  0  4
    8.2469    1.8642   -2.5730 F   0  0  0  0  0  1
    8.6744    3.6758   -1.3825 F   0  0  0  0  0  1
    9.9594    1.8232   -1.0642 F   0  0  0  0  0  1
    6.3831    2.1863   -0.4305 C   0  0  0  0  0  4
    3.3021   -0.0911    1.0335 C   0  0  0  0  0  4
    2.2085   -0.6866    1.6769 C   0  0  0  0  0  4
    2.1454   -2.1051    2.0228 C   0  0  0  0  0  4
    3.1243   -2.8383    1.7557 O   0  0  0  0  0  2
    1.0215   -2.6474    2.6520 N   0  0  0  0  0  3
    0.7857   -3.9746    3.0666 C   0  0  0  0  0  4
    1.1701   -4.2969    4.3569 C   0  0  0  0  0  4
    1.0128   -5.5683    4.8208 C   0  0  0  0  0  4
    0.4676   -6.5963    4.0454 C   0  0  0  0  0  4
    0.3181   -7.9315    4.6571 C   0  0  0  0  0  4
    0.0790   -6.3067    2.7690 C   0  0  0  0  0  4
   -0.5977   -7.4855    1.6756 S   0  0  0  0  0  6
    0.2857   -7.5426    0.4473 O   0  0  0  0  0  2
   -1.9414   -6.9636    1.1328 O   0  0  0  0  0  2
   -0.7652   -9.0543    2.2618 N   0  0  0  0  0  3
   -1.9996   -9.3181    2.8795 C   0  0  0  0  0  4
   -2.0678  -10.4686    3.8226 C   0  0  0  0  0  4
   -0.9820  -11.3260    3.7085 O   0  0  0  0  0  2
    0.1775  -10.6099    3.8976 C   0  0  0  0  0  4
    0.3969   -9.7101    2.7257 C   0  0  0  0  0  4
    0.2523   -4.9905    2.3178 C   0  0  0  0  0  4
   -0.4422    1.4738    3.2083 C   0  0  0  0  0  4
   -1.7238    1.5462    3.7334 C   0  0  0  0  0  4
   -3.9787    0.2434    5.2070 H   0  0  0  0  0  1
   -4.6269   -0.0400    3.6093 H   0  0  0  0  0  1
   -4.2943    1.5910    4.1405 H   0  0  0  0  0  1
   -2.7449   -1.4985    2.9448 H   0  0  0  0  0  1
   -0.5122   -1.6540    2.0218 H   0  0  0  0  0  1
    3.9110    3.1454    0.8868 H   0  0  0  0  0  1
    3.7948    2.3433   -0.6611 H   0  0  0  0  0  1
    5.1346    0.6654    2.2623 H   0  0  0  0  0  1
    7.4591   -0.0387    2.4988 H   0  0  0  0  0  1
    9.0998    0.7149    0.8129 H   0  0  0  0  0  1
    6.0836    2.8062   -1.2497 H   0  0  0  0  0  1
    4.1598   -0.6125    0.6628 H   0  0  0  0  0  1
    0.2567   -1.9835    2.8395 H   0  0  0  0  0  1
    1.5919   -3.5457    4.9914 H   0  0  0  0  0  1
    1.3197   -5.7896    5.8216 H   0  0  0  0  0  1
   -0.6420   -8.0045    5.1237 H   0  0  0  0  0  1
    1.0833   -8.0752    5.3910 H   0  0  0  0  0  1
    0.4046   -8.6824    3.8998 H   0  0  0  0  0  1
   -2.7138   -9.4979    2.1034 H   0  0  0  0  0  1
   -2.2785   -8.4407    3.4247 H   0  0  0  0  0  1
   -2.9618  -11.0215    3.6225 H   0  0  0  0  0  1
   -2.0994  -10.0890    4.8225 H   0  0  0  0  0  1
    1.0032  -11.2841    3.9904 H   0  0  0  0  0  1
    0.0943  -10.0232    4.7885 H   0  0  0  0  0  1
    0.7914  -10.2975    1.9231 H   0  0  0  0  0  1
    1.1111   -8.9645    3.0065 H   0  0  0  0  0  1
   -0.0537   -4.7633    1.3180 H   0  0  0  0  0  1
    0.2005    2.3251    3.2927 H   0  0  0  0  0  1
   -2.0518    2.4455    4.2115 H   0  0  0  0  0  1
  1  2  1  0
  1 43  1  0
  1 44  1  0
  1 45  1  0
  2  3  2  0
  3  4  1  0
  3 46  1  0
  4  5  2  0
  4 47  1  0
  5 41  1  0
  5  6  1  0
  6  7  2  0
  7  8  1  0
  8 20  1  0
  8  9  1  0
  9 10  1  0
  9 48  1  0
  9 49  1  0
 10 11  2  0
 11 12  1  0
 11 50  1  0
 12 13  2  0
 12 51  1  0
 13 14  1  0
 13 52  1  0
 14 19  2  0
 14 15  1  0
 15 18  1  0
 15 17  1  0
 15 16  1  0
 19 10  1  0
 19 53  1  0
 20 21  2  0
 20 54  1  0
 21 22  1  0
 21  6  1  0
 22 24  1  0
 22 23  2  0
 24 25  1  0
 24 55  1  0
 25 26  2  0
 26 27  1  0
 26 56  1  0
 27 28  2  0
 27 57  1  0
 28 30  1  0
 28 29  1  0
 29 58  1  0
 29 59  1  0
 29 60  1  0
 30 40  2  0
 30 31  1  0
 31 34  1  0
 31 33  2  0
 31 32  2  0
 34 35  1  0
 35 36  1  0
 35 61  1  0
 35 62  1  0
 36 37  1  0
 36 63  1  0
 36 64  1  0
 37 38  1  0
 38 39  1  0
 38 65  1  0
 38 66  1  0
 39 34  1  0
 39 67  1  0
 39 68  1  0
 40 25  1  0
 40 69  1  0
 41 42  2  0
 41 70  1  0
 42  2  1  0
 42 71  1  0
M  END
> <Name>
_AT6

> <activity>
7.735

> <prediction>
7.72575

$$$$
_AT7
  SciTegic01182412303D

 68 72  0  0  0  0            999 V2000
    0.9513   -7.7799    0.0362 C   0  0  0  0  0  4
    1.3671   -6.3874    0.3400 C   0  0  0  0  0  4
    2.5105   -5.9005   -0.2656 C   0  0  0  0  0  4
    2.8768   -4.5967    0.0373 C   0  0  0  0  0  4
    2.2198   -3.7513    0.8670 C   0  0  0  0  0  4
    2.6625   -2.4073    1.2260 C   0  0  0  0  0  4
    3.7780   -1.8006    0.7971 N   0  0  0  0  0  3
    3.9662   -0.6195    1.2495 N   0  0  0  0  0  3
    4.9859    0.3512    1.0426 C   0  0  0  0  0  4
    4.9585    1.5542    1.6684 C   0  0  0  0  0  4
    5.9557    2.5168    1.4755 C   0  0  0  0  0  4
    6.9629    2.1915    0.6229 C   0  0  0  0  0  4
    7.0267    0.9544   -0.0500 C   0  0  0  0  0  4
    8.1584    0.6453   -0.9647 C   0  0  0  0  0  4
    7.7045    0.4272   -2.2577 F   0  0  0  0  0  1
    8.8661   -0.4470   -0.5448 F   0  0  0  0  0  1
    8.9926    1.7615   -0.9543 F   0  0  0  0  0  1
    6.0190    0.0321    0.1720 C   0  0  0  0  0  4
    2.8824   -0.3666    2.0762 C   0  0  0  0  0  4
    2.0551   -1.5067    2.0518 C   0  0  0  0  0  4
    0.7138   -1.5412    2.6466 C   0  0  0  0  0  4
    0.4302   -0.8367    3.6133 O   0  0  0  0  0  2
   -0.2186   -2.4125    2.0176 N   0  0  0  0  0  3
   -1.5614   -2.6253    2.3564 C   0  0  0  0  0  4
   -2.5386   -1.8349    1.7618 C   0  0  0  0  0  4
   -3.8414   -1.9699    2.1305 C   0  0  0  0  0  4
   -4.2304   -2.8920    3.0998 C   0  0  0  0  0  4
   -5.6644   -3.0095    3.4373 C   0  0  0  0  0  4
   -3.2944   -3.6791    3.6992 C   0  0  0  0  0  4
   -3.7639   -4.7944    4.9422 S   0  0  0  0  0  6
   -4.5801   -5.9500    4.4081 O   0  0  0  0  0  2
   -2.4691   -5.4635    5.4294 O   0  0  0  0  0  2
   -4.4577   -4.0525    6.2791 N   0  0  0  0  0  3
   -3.4945   -3.6895    7.2978 C   0  0  0  0  0  4
   -3.4974   -4.6972    8.4301 C   0  0  0  0  0  4
   -4.7046   -5.2882    8.6754 O   0  0  0  0  0  2
   -5.7677   -4.4993    8.2878 C   0  0  0  0  0  4
   -5.7255   -4.4404    6.7440 C   0  0  0  0  0  4
   -1.9492   -3.5496    3.3299 C   0  0  0  0  0  4
    1.0717   -4.2718    1.4576 C   0  0  0  0  0  4
    0.6496   -5.5553    1.2081 C   0  0  0  0  0  4
    1.4041   -8.4485    0.7382 H   0  0  0  0  0  1
    1.2638   -8.0373   -0.9543 H   0  0  0  0  0  1
   -0.1136   -7.8573    0.1057 H   0  0  0  0  0  1
    3.0869   -6.5017   -0.9373 H   0  0  0  0  0  1
    3.7640   -4.2231   -0.4297 H   0  0  0  0  0  1
    4.1479    1.7744    2.3313 H   0  0  0  0  0  1
    5.9267    3.4627    1.9749 H   0  0  0  0  0  1
    7.7416    2.9058    0.4550 H   0  0  0  0  0  1
    6.0360   -0.9169   -0.3221 H   0  0  0  0  0  1
    2.7063    0.5308    2.6316 H   0  0  0  0  0  1
    0.1368   -2.9525    1.2157 H   0  0  0  0  0  1
   -2.2659   -1.1199    1.0139 H   0  0  0  0  0  1
   -4.5833   -1.3546    1.6659 H   0  0  0  0  0  1
   -6.1208   -3.7419    2.8047 H   0  0  0  0  0  1
   -6.1437   -2.0640    3.2916 H   0  0  0  0  0  1
   -5.7670   -3.3076    4.4598 H   0  0  0  0  0  1
   -3.7436   -2.7246    7.6872 H   0  0  0  0  0  1
   -2.5184   -3.6567    6.8608 H   0  0  0  0  0  1
   -3.1867   -4.1947    9.3222 H   0  0  0  0  0  1
   -2.7938   -5.4670    8.1909 H   0  0  0  0  0  1
   -5.6686   -3.5163    8.6986 H   0  0  0  0  0  1
   -6.6893   -4.9320    8.6167 H   0  0  0  0  0  1
   -6.4525   -3.7334    6.4027 H   0  0  0  0  0  1
   -5.9583   -5.4086    6.3524 H   0  0  0  0  0  1
   -1.2104   -4.1655    3.7986 H   0  0  0  0  0  1
    0.5032   -3.6564    2.1231 H   0  0  0  0  0  1
   -0.2365   -5.9228    1.6820 H   0  0  0  0  0  1
  1  2  1  0
  1 42  1  0
  1 43  1  0
  1 44  1  0
  2  3  2  0
  3  4  1  0
  3 45  1  0
  4  5  2  0
  4 46  1  0
  5 40  1  0
  5  6  1  0
  6  7  2  0
  7  8  1  0
  8 19  1  0
  8  9  1  0
  9 10  2  0
 10 11  1  0
 10 47  1  0
 11 12  2  0
 11 48  1  0
 12 13  1  0
 12 49  1  0
 13 18  2  0
 13 14  1  0
 14 17  1  0
 14 16  1  0
 14 15  1  0
 18  9  1  0
 18 50  1  0
 19 20  2  0
 19 51  1  0
 20 21  1  0
 20  6  1  0
 21 23  1  0
 21 22  2  0
 23 24  1  0
 23 52  1  0
 24 25  2  0
 25 26  1  0
 25 53  1  0
 26 27  2  0
 26 54  1  0
 27 29  1  0
 27 28  1  0
 28 55  1  0
 28 56  1  0
 28 57  1  0
 29 39  2  0
 29 30  1  0
 30 33  1  0
 30 32  2  0
 30 31  2  0
 33 34  1  0
 34 35  1  0
 34 58  1  0
 34 59  1  0
 35 36  1  0
 35 60  1  0
 35 61  1  0
 36 37  1  0
 37 38  1  0
 37 62  1  0
 37 63  1  0
 38 33  1  0
 38 64  1  0
 38 65  1  0
 39 24  1  0
 39 66  1  0
 40 41  2  0
 40 67  1  0
 41  2  1  0
 41 68  1  0
M  END
> <Name>
_AT7

> <activity>
7.622

> <prediction>
7.4217880952381

$$$$
_AT8
  SciTegic01182412303D

 65 69  0  0  0  0            999 V2000
    1.7358    3.1998    0.9684 C   0  0  0  0  0  4
    0.9971    1.9525    0.5694 C   0  0  0  0  0  4
    0.1021    1.3439    1.4216 C   0  0  0  0  0  4
   -0.5641    0.1979    1.0353 C   0  0  0  0  0  4
   -0.3822   -0.3977   -0.1973 C   0  0  0  0  0  4
   -1.0435   -1.6154   -0.5814 C   0  0  0  0  0  4
   -2.2803   -1.9396   -0.0728 N   0  0  0  0  0  3
   -2.6908   -3.0929   -0.5283 N   0  0  0  0  0  3
   -3.9228   -3.6621   -0.1699 C   0  0  0  0  0  4
   -5.0147   -2.8998    0.1609 C   0  0  0  0  0  4
   -6.2241   -3.4424    0.5108 C   0  0  0  0  0  4
   -6.3740   -4.7993    0.5387 C   0  0  0  0  0  4
   -7.5769   -5.3825    0.8863 F   0  0  0  0  0  1
   -5.2930   -5.6000    0.2104 C   0  0  0  0  0  4
   -4.0672   -5.0232   -0.1436 C   0  0  0  0  0  4
   -1.7257   -3.5489   -1.3494 C   0  0  0  0  0  4
   -0.6776   -2.6252   -1.3951 C   0  0  0  0  0  4
    0.5031   -2.7333   -2.2186 C   0  0  0  0  0  4
    0.4413   -3.3322   -3.3568 O   0  0  0  0  0  2
    1.7697   -2.2120   -1.8713 N   0  0  0  0  0  3
    2.0975   -1.5264   -0.6727 C   0  0  0  0  0  4
    1.2644   -1.6772    0.4464 C   0  0  0  0  0  4
    1.5063   -1.0715    1.6552 C   0  0  0  0  0  4
    2.6089   -0.2666    1.8259 C   0  0  0  0  0  4
    2.9171    0.4118    3.1108 C   0  0  0  0  0  4
    3.4398   -0.1051    0.7407 C   0  0  0  0  0  4
    4.8613    0.9259    0.9342 S   0  0  0  0  0  6
    4.5955    2.0362    1.9013 O   0  0  0  0  0  2
    5.1717    1.6049   -0.3941 O   0  0  0  0  0  2
    6.1698   -0.0258    1.4543 N   0  0  0  0  0  3
    5.8753   -0.8841    2.5804 C   0  0  0  0  0  4
    6.8759   -2.0325    2.6378 C   0  0  0  0  0  4
    8.1208   -1.6628    2.1723 O   0  0  0  0  0  2
    8.1661   -1.2932    0.8549 C   0  0  0  0  0  4
    6.7600   -0.8555    0.4330 C   0  0  0  0  0  4
    3.1928   -0.7241   -0.4939 C   0  0  0  0  0  4
    0.5334    0.2418   -1.0441 C   0  0  0  0  0  4
    1.1989    1.3811   -0.6669 C   0  0  0  0  0  4
    2.6565    2.9324    1.4436 H   0  0  0  0  0  1
    1.1355    3.7679    1.6479 H   0  0  0  0  0  1
    1.9413    3.7866    0.0975 H   0  0  0  0  0  1
   -0.0781    1.7623    2.3898 H   0  0  0  0  0  1
   -1.2525   -0.2489    1.7220 H   0  0  0  0  0  1
   -4.9179   -1.8343    0.1450 H   0  0  0  0  0  1
   -7.0467   -2.8055    0.7608 H   0  0  0  0  0  1
   -5.3949   -6.6650    0.2274 H   0  0  0  0  0  1
   -3.2377   -5.6505   -0.3953 H   0  0  0  0  0  1
   -1.7565   -4.4752   -1.8841 H   0  0  0  0  0  1
    2.5292   -2.3423   -2.5547 H   0  0  0  0  0  1
    0.3963   -2.2956    0.3533 H   0  0  0  0  0  1
    0.8316   -1.2269    2.4710 H   0  0  0  0  0  1
    3.5301   -0.2260    3.7128 H   0  0  0  0  0  1
    2.0057    0.6239    3.6297 H   0  0  0  0  0  1
    3.4375    1.3261    2.9156 H   0  0  0  0  0  1
    4.8871   -1.2804    2.4746 H   0  0  0  0  0  1
    5.9367   -0.3154    3.4847 H   0  0  0  0  0  1
    6.5094   -2.8392    2.0380 H   0  0  0  0  0  1
    6.9701   -2.3571    3.6530 H   0  0  0  0  0  1
    8.4823   -2.1221    0.2567 H   0  0  0  0  0  1
    8.8513   -0.4810    0.7298 H   0  0  0  0  0  1
    6.1496   -1.7217    0.2847 H   0  0  0  0  0  1
    6.8213   -0.3018   -0.4805 H   0  0  0  0  0  1
    3.8699   -0.5671   -1.3073 H   0  0  0  0  0  1
    0.7190   -0.1707   -2.0137 H   0  0  0  0  0  1
    1.8887    1.8347   -1.3476 H   0  0  0  0  0  1
  1  2  1  0
  1 39  1  0
  1 40  1  0
  1 41  1  0
  2  3  2  0
  3  4  1  0
  3 42  1  0
  4  5  2  0
  4 43  1  0
  5 37  1  0
  5  6  1  0
  6  7  2  0
  7  8  1  0
  8 16  1  0
  8  9  1  0
  9 10  2  0
 10 11  1  0
 10 44  1  0
 11 12  2  0
 11 45  1  0
 12 14  1  0
 12 13  1  0
 14 15  2  0
 14 46  1  0
 15  9  1  0
 15 47  1  0
 16 17  2  0
 16 48  1  0
 17 18  1  0
 17  6  1  0
 18 20  1  0
 18 19  2  0
 20 21  1  0
 20 49  1  0
 21 22  2  0
 22 23  1  0
 22 50  1  0
 23 24  2  0
 23 51  1  0
 24 26  1  0
 24 25  1  0
 25 52  1  0
 25 53  1  0
 25 54  1  0
 26 36  2  0
 26 27  1  0
 27 30  1  0
 27 29  2  0
 27 28  2  0
 30 31  1  0
 31 32  1  0
 31 55  1  0
 31 56  1  0
 32 33  1  0
 32 57  1  0
 32 58  1  0
 33 34  1  0
 34 35  1  0
 34 59  1  0
 34 60  1  0
 35 30  1  0
 35 61  1  0
 35 62  1  0
 36 21  1  0
 36 63  1  0
 37 38  2  0
 37 64  1  0
 38  2  1  0
 38 65  1  0
M  END
> <Name>
_AT8

> <activity>
7.614

> <prediction>
7.62103809523809

$$$$
_AT9
  SciTegic01182412303D

 72 76  0  0  0  0            999 V2000
   10.2821   -9.8299    6.4091 C   0  0  0  0  0  4
    9.8929   -8.4858    6.2492 O   0  0  0  0  0  2
    8.9313   -7.9641    7.0825 C   0  0  0  0  0  4
    8.3536   -8.7449    8.0634 C   0  0  0  0  0  4
    7.3912   -8.2484    8.9107 C   0  0  0  0  0  4
    6.9717   -6.9460    8.8048 C   0  0  0  0  0  4
    7.5461   -6.1349    7.8114 C   0  0  0  0  0  4
    7.0224   -4.7676    7.7143 C   0  0  0  0  0  4
    6.4405   -4.4469    6.4412 N   0  0  0  0  0  3
    6.8121   -3.4708    5.5655 C   0  0  0  0  0  4
    5.9937   -3.5215    4.4349 C   0  0  0  0  0  4
    6.2216   -2.6839    3.2459 C   0  0  0  0  0  4
    7.4028   -2.3720    2.9798 O   0  0  0  0  0  2
    5.2235   -2.2302    2.4010 N   0  0  0  0  0  3
    5.3305   -1.4303    1.2262 C   0  0  0  0  0  4
    4.8576   -1.9873    0.0170 C   0  0  0  0  0  4
    4.9540   -1.2734   -1.1383 C   0  0  0  0  0  4
    5.5086    0.0172   -1.1950 C   0  0  0  0  0  4
    5.6256    0.6785   -2.5161 C   0  0  0  0  0  4
    5.9611    0.5517   -0.0190 C   0  0  0  0  0  4
    6.6508    2.1294    0.1218 S   0  0  0  0  0  6
    8.1694    1.9965    0.3923 O   0  0  0  0  0  2
    6.6649    2.6914   -1.3313 O   0  0  0  0  0  2
    5.9757    3.2614    1.0923 N   0  0  0  0  0  3
    5.0258    4.2053    0.8202 C   0  0  0  0  0  4
    3.8940    4.2255    1.8618 C   0  0  0  0  0  4
    4.3929    4.4011    3.1356 O   0  0  0  0  0  2
    5.7510    4.2872    3.2790 C   0  0  0  0  0  4
    6.3342    3.1336    2.4745 C   0  0  0  0  0  4
    5.8654   -0.1832    1.1827 C   0  0  0  0  0  4
    5.1250   -4.5451    4.6637 C   0  0  0  0  0  4
    4.0315   -5.0008    3.8118 C   0  0  0  0  0  4
    3.6892   -4.4537    2.6006 C   0  0  0  0  0  4
    2.6102   -4.9715    1.9181 C   0  0  0  0  0  4
    1.8561   -6.0185    2.3979 C   0  0  0  0  0  4
    0.6847   -6.5649    1.6470 C   0  0  0  0  0  4
   -0.4442   -6.3990    2.4461 F   0  0  0  0  0  1
    0.8383   -7.9175    1.4345 F   0  0  0  0  0  1
    0.4952   -5.8875    0.4645 F   0  0  0  0  0  1
    2.1899   -6.5797    3.6165 C   0  0  0  0  0  4
    3.2774   -6.0477    4.2893 C   0  0  0  0  0  4
    5.4417   -5.0660    5.8845 N   0  0  0  0  0  3
    8.5180   -6.6571    6.9659 C   0  0  0  0  0  4
   11.0327  -10.0724    5.6862 H   0  0  0  0  0  1
    9.4332  -10.4661    6.2690 H   0  0  0  0  0  1
   10.6759   -9.9725    7.3938 H   0  0  0  0  0  1
    8.6631   -9.7639    8.1671 H   0  0  0  0  0  1
    6.9654   -8.8833    9.6595 H   0  0  0  0  0  1
    6.2239   -6.5569    9.4639 H   0  0  0  0  0  1
    7.8275   -4.0867    7.8959 H   0  0  0  0  0  1
    6.2723   -4.6418    8.4669 H   0  0  0  0  0  1
    7.6083   -2.7729    5.7204 H   0  0  0  0  0  1
    4.2664   -2.5107    2.6581 H   0  0  0  0  0  1
    4.4256   -2.9662    0.0092 H   0  0  0  0  0  1
    4.5915   -1.7141   -2.0434 H   0  0  0  0  0  1
    4.7353    1.2376   -2.7151 H   0  0  0  0  0  1
    5.7583   -0.0632   -3.2758 H   0  0  0  0  0  1
    6.4677    1.3387   -2.5111 H   0  0  0  0  0  1
    4.6031    3.9985   -0.1408 H   0  0  0  0  0  1
    5.4938    5.1674    0.8044 H   0  0  0  0  0  1
    3.3638    3.2971    1.8193 H   0  0  0  0  0  1
    3.2250    5.0291    1.6349 H   0  0  0  0  0  1
    5.9736    4.1295    4.3136 H   0  0  0  0  0  1
    6.2071    5.1979    2.9509 H   0  0  0  0  0  1
    5.9521    2.2092    2.8545 H   0  0  0  0  0  1
    7.4003    3.1430    2.5652 H   0  0  0  0  0  1
    6.2263    0.2570    2.0888 H   0  0  0  0  0  1
    4.2506   -3.6390    2.1934 H   0  0  0  0  0  1
    2.3471   -4.5413    0.9743 H   0  0  0  0  0  1
    1.6291   -7.3945    4.0246 H   0  0  0  0  0  1
    3.5460   -6.4747    5.2329 H   0  0  0  0  0  1
    8.9513   -6.0328    6.2126 H   0  0  0  0  0  1
  1  2  1  0
  1 44  1  0
  1 45  1  0
  1 46  1  0
  2  3  1  0
  3  4  2  0
  4  5  1  0
  4 47  1  0
  5  6  2  0
  5 48  1  0
  6  7  1  0
  6 49  1  0
  7 43  2  0
  7  8  1  0
  8  9  1  0
  8 50  1  0
  8 51  1  0
  9 10  1  0
 10 11  2  0
 10 52  1  0
 11 31  1  0
 11 12  1  0
 12 14  1  0
 12 13  2  0
 14 15  1  0
 14 53  1  0
 15 16  2  0
 16 17  1  0
 16 54  1  0
 17 18  2  0
 17 55  1  0
 18 20  1  0
 18 19  1  0
 19 56  1  0
 19 57  1  0
 19 58  1  0
 20 30  2  0
 20 21  1  0
 21 24  1  0
 21 23  2  0
 21 22  2  0
 24 25  1  0
 25 26  1  0
 25 59  1  0
 25 60  1  0
 26 27  1  0
 26 61  1  0
 26 62  1  0
 27 28  1  0
 28 29  1  0
 28 63  1  0
 28 64  1  0
 29 24  1  0
 29 65  1  0
 29 66  1  0
 30 15  1  0
 30 67  1  0
 31 42  2  0
 31 32  1  0
 32 33  2  0
 33 34  1  0
 33 68  1  0
 34 35  2  0
 34 69  1  0
 35 40  1  0
 35 36  1  0
 36 39  1  0
 36 38  1  0
 36 37  1  0
 40 41  2  0
 40 70  1  0
 41 32  1  0
 41 71  1  0
 42  9  1  0
 43  3  1  0
 43 72  1  0
M  END
> <Name>
_AT9

> <activity>
7.51

> <prediction>
7.96491666666667

$$$$
_AT10
  SciTegic01182412303D

 73 77  0  0  0  0            999 V2000
   -8.3217   -3.3695    2.1921 C   0  0  0  0  0  4
   -7.2303   -2.8664    1.4839 O   0  0  0  0  0  2
   -5.9115   -3.2289    1.6960 C   0  0  0  0  0  4
   -5.5896   -4.4846    2.1607 C   0  0  0  0  0  4
   -4.2849   -4.8800    2.3839 C   0  0  0  0  0  4
   -3.2731   -3.9774    2.1289 C   0  0  0  0  0  4
   -3.5921   -2.7096    1.6599 C   0  0  0  0  0  4
   -2.4853   -1.7495    1.3914 C   0  0  0  0  0  4
   -2.0706   -1.9148   -0.0012 N   0  0  0  0  0  3
   -1.0973   -1.2355   -0.5957 C   0  0  0  0  0  4
   -1.0197   -1.6969   -1.9174 C   0  0  0  0  0  4
    0.0074   -1.2146   -2.8334 C   0  0  0  0  0  4
   -0.2764   -1.1817   -4.0587 O   0  0  0  0  0  2
    1.2863   -0.7807   -2.4459 N   0  0  0  0  0  3
    1.8423   -0.7337   -1.1565 C   0  0  0  0  0  4
    1.2648   -1.5294   -0.1508 C   0  0  0  0  0  4
    1.7685   -1.5455    1.1289 C   0  0  0  0  0  4
    2.8592   -0.7894    1.4950 C   0  0  0  0  0  4
    3.3785   -0.8155    2.8909 C   0  0  0  0  0  4
    3.4424   -0.0042    0.5304 C   0  0  0  0  0  4
    4.8421    0.9871    0.8596 S   0  0  0  0  0  6
    4.5155    2.0753    1.8537 O   0  0  0  0  0  2
    5.2660    1.7170   -0.4003 O   0  0  0  0  0  2
    6.1842    0.0903    1.3978 N   0  0  0  0  0  3
    6.0840   -0.4505    2.6876 C   0  0  0  0  0  4
    6.7191   -1.7882    2.9141 C   0  0  0  0  0  4
    7.8967   -1.8390    2.1544 O   0  0  0  0  0  2
    7.4706   -1.9346    0.8226 C   0  0  0  0  0  4
    6.8317   -0.6714    0.3934 C   0  0  0  0  0  4
    2.9228    0.0098   -0.7801 C   0  0  0  0  0  4
   -1.9764   -2.6538   -2.0582 C   0  0  0  0  0  4
   -2.2912   -3.4042   -3.2593 C   0  0  0  0  0  4
   -3.3135   -4.3632   -3.2966 C   0  0  0  0  0  4
   -3.6183   -5.0752   -4.4244 C   0  0  0  0  0  4
   -2.9244   -4.8748   -5.5806 C   0  0  0  0  0  4
   -1.9100   -3.9442   -5.5987 C   0  0  0  0  0  4
   -1.2036   -3.7442   -6.7863 O   0  0  0  0  0  2
   -1.8452   -3.9547   -8.0381 C   0  0  0  0  0  4
   -1.6197   -3.2380   -4.4502 C   0  0  0  0  0  4
   -2.5904   -2.7514   -0.8588 N   0  0  0  0  0  3
   -4.8888   -2.3238    1.4408 C   0  0  0  0  0  4
   -9.2217   -2.9211    1.8261 H   0  0  0  0  0  1
   -8.2075   -3.1430    3.2316 H   0  0  0  0  0  1
   -8.3732   -4.4303    2.0617 H   0  0  0  0  0  1
   -6.3792   -5.1797    2.3561 H   0  0  0  0  0  1
   -4.0644   -5.8625    2.7459 H   0  0  0  0  0  1
   -2.2516   -4.2516    2.2909 H   0  0  0  0  0  1
   -1.6612   -1.9544    2.0424 H   0  0  0  0  0  1
   -2.8264   -0.7482    1.5522 H   0  0  0  0  0  1
   -0.4868   -0.4782   -0.1500 H   0  0  0  0  0  1
    1.8971   -0.4537   -3.2081 H   0  0  0  0  0  1
    0.4151   -2.1355   -0.3865 H   0  0  0  0  0  1
    1.2978   -2.1654    1.8632 H   0  0  0  0  0  1
    4.1145   -1.5868    2.9832 H   0  0  0  0  0  1
    2.5726   -1.0087    3.5677 H   0  0  0  0  0  1
    3.8216    0.1300    3.1244 H   0  0  0  0  0  1
    5.0434   -0.5437    2.9189 H   0  0  0  0  0  1
    6.5392    0.2419    3.3645 H   0  0  0  0  0  1
    6.0520   -2.5649    2.6035 H   0  0  0  0  0  1
    6.9501   -1.9102    3.9518 H   0  0  0  0  0  1
    6.7649   -2.7341    0.7348 H   0  0  0  0  0  1
    8.3147   -2.1334    0.1958 H   0  0  0  0  0  1
    6.1014   -0.9143   -0.3500 H   0  0  0  0  0  1
    7.5914   -0.0555   -0.0408 H   0  0  0  0  0  1
    3.3965    0.6307   -1.5116 H   0  0  0  0  0  1
   -3.8784   -4.5457   -2.4063 H   0  0  0  0  0  1
   -4.4087   -5.7960   -4.3987 H   0  0  0  0  0  1
   -3.1647   -5.4328   -6.4614 H   0  0  0  0  0  1
   -1.1549   -3.7547   -8.8308 H   0  0  0  0  0  1
   -2.6857   -3.2980   -8.1229 H   0  0  0  0  0  1
   -2.1777   -4.9697   -8.1022 H   0  0  0  0  0  1
   -0.8273   -2.5198   -4.4865 H   0  0  0  0  0  1
   -5.1100   -1.3414    1.0791 H   0  0  0  0  0  1
  1  2  1  0
  1 42  1  0
  1 43  1  0
  1 44  1  0
  2  3  1  0
  3  4  2  0
  4  5  1  0
  4 45  1  0
  5  6  2  0
  5 46  1  0
  6  7  1  0
  6 47  1  0
  7 41  2  0
  7  8  1  0
  8  9  1  0
  8 48  1  0
  8 49  1  0
  9 10  1  0
 10 11  2  0
 10 50  1  0
 11 31  1  0
 11 12  1  0
 12 14  1  0
 12 13  2  0
 14 15  1  0
 14 51  1  0
 15 16  2  0
 16 17  1  0
 16 52  1  0
 17 18  2  0
 17 53  1  0
 18 20  1  0
 18 19  1  0
 19 54  1  0
 19 55  1  0
 19 56  1  0
 20 30  2  0
 20 21  1  0
 21 24  1  0
 21 23  2  0
 21 22  2  0
 24 25  1  0
 25 26  1  0
 25 57  1  0
 25 58  1  0
 26 27  1  0
 26 59  1  0
 26 60  1  0
 27 28  1  0
 28 29  1  0
 28 61  1  0
 28 62  1  0
 29 24  1  0
 29 63  1  0
 29 64  1  0
 30 15  1  0
 30 65  1  0
 31 40  2  0
 31 32  1  0
 32 33  2  0
 33 34  1  0
 33 66  1  0
 34 35  2  0
 34 67  1  0
 35 36  1  0
 35 68  1  0
 36 39  2  0
 36 37  1  0
 37 38  1  0
 38 69  1  0
 38 70  1  0
 38 71  1  0
 39 32  1  0
 39 72  1  0
 40  9  1  0
 41  3  1  0
 41 73  1  0
M  END
> <Name>
_AT10

> <activity>
7.369

> <prediction>
7.3540380952381

$$$$
_AT11
  SciTegic01182412303D

 65 69  0  0  0  0            999 V2000
    3.5020    1.1348   -1.6263 C   0  0  0  0  0  4
    2.3149    0.2555   -1.4973 C   0  0  0  0  0  4
    1.0689    0.8043   -1.7578 C   0  0  0  0  0  4
   -0.0443    0.0023   -1.6443 C   0  0  0  0  0  4
    0.0226   -1.3252   -1.2825 C   0  0  0  0  0  4
   -1.2086   -2.1263   -1.1307 C   0  0  0  0  0  4
   -2.3592   -1.9038   -1.8303 N   0  0  0  0  0  3
   -3.3058   -2.7481   -1.4925 N   0  0  0  0  0  3
   -4.6384   -2.7872   -2.0417 C   0  0  0  0  0  4
   -5.3016   -3.9941   -2.1138 C   0  0  0  0  0  4
   -6.5794   -4.1056   -2.6265 C   0  0  0  0  0  4
   -7.2430   -2.9894   -3.0910 C   0  0  0  0  0  4
   -6.5804   -1.7810   -3.0196 C   0  0  0  0  0  4
   -5.2889   -1.6664   -2.5016 C   0  0  0  0  0  4
   -2.7909   -3.5527   -0.5541 C   0  0  0  0  0  4
   -1.4632   -3.1804   -0.3088 C   0  0  0  0  0  4
   -0.5532   -3.8816    0.6073 C   0  0  0  0  0  4
   -0.7507   -5.1365    0.7284 O   0  0  0  0  0  2
    0.4874   -3.2858    1.3303 N   0  0  0  0  0  3
    0.8555   -1.9039    1.3395 C   0  0  0  0  0  4
   -0.0963   -0.9623    0.9132 C   0  0  0  0  0  4
    0.2277    0.3661    0.9138 C   0  0  0  0  0  4
    1.4531    0.8548    1.3138 C   0  0  0  0  0  4
    1.6834    2.3200    1.2667 C   0  0  0  0  0  4
    2.3981   -0.0406    1.7341 C   0  0  0  0  0  4
    3.9574    0.4910    2.2426 S   0  0  0  0  0  6
    3.8615    1.5807    3.3072 O   0  0  0  0  0  2
    4.6038    1.2164    1.0630 O   0  0  0  0  0  2
    5.0444   -0.7104    2.7219 N   0  0  0  0  0  3
    5.5641   -1.5492    1.7092 C   0  0  0  0  0  4
    7.0387   -1.6383    1.5742 C   0  0  0  0  0  4
    7.7218   -1.3854    2.7321 O   0  0  0  0  0  2
    6.9699   -1.4736    3.8853 C   0  0  0  0  0  4
    5.8138   -0.4736    3.8729 C   0  0  0  0  0  4
    2.0542   -1.3980    1.7291 C   0  0  0  0  0  4
    1.2700   -1.8511   -1.0282 C   0  0  0  0  0  4
    2.3992   -1.0616   -1.1367 C   0  0  0  0  0  4
    3.6996    1.6074   -0.6868 H   0  0  0  0  0  1
    3.3135    1.8820   -2.3687 H   0  0  0  0  0  1
    4.3495    0.5496   -1.9164 H   0  0  0  0  0  1
    0.9741    1.8315   -2.0417 H   0  0  0  0  0  1
   -1.0044    0.4292   -1.8461 H   0  0  0  0  0  1
   -4.8089   -4.8756   -1.7600 H   0  0  0  0  0  1
   -7.0566   -5.0626   -2.6634 H   0  0  0  0  0  1
   -8.2330   -3.0577   -3.4912 H   0  0  0  0  0  1
   -7.0741   -0.9003   -3.3740 H   0  0  0  0  0  1
   -4.8078   -0.7114   -2.4627 H   0  0  0  0  0  1
   -3.3107   -4.3524   -0.0691 H   0  0  0  0  0  1
    1.0509   -3.9131    1.9218 H   0  0  0  0  0  1
   -1.0653   -1.2817    0.5910 H   0  0  0  0  0  1
   -0.5119    1.0661    0.5852 H   0  0  0  0  0  1
    1.3966    2.7563    2.2006 H   0  0  0  0  0  1
    1.0992    2.7477    0.4789 H   0  0  0  0  0  1
    2.7204    2.5124    1.0866 H   0  0  0  0  0  1
    5.1788   -1.1979    0.7748 H   0  0  0  0  0  1
    5.2004   -2.5380    1.8959 H   0  0  0  0  0  1
    7.3521   -0.9287    0.8373 H   0  0  0  0  0  1
    7.2870   -2.6262    1.2465 H   0  0  0  0  0  1
    7.5979   -1.2698    4.7273 H   0  0  0  0  0  1
    6.5732   -2.4639    3.9678 H   0  0  0  0  0  1
    6.1981    0.5248    3.8531 H   0  0  0  0  0  1
    5.2101   -0.6062    4.7463 H   0  0  0  0  0  1
    2.7969   -2.0939    2.0594 H   0  0  0  0  0  1
    1.3655   -2.8784   -0.7445 H   0  0  0  0  0  1
    3.3590   -1.4893   -0.9347 H   0  0  0  0  0  1
  1  2  1  0
  1 38  1  0
  1 39  1  0
  1 40  1  0
  2  3  2  0
  3  4  1  0
  3 41  1  0
  4  5  2  0
  4 42  1  0
  5 36  1  0
  5  6  1  0
  6  7  2  0
  7  8  1  0
  8 15  1  0
  8  9  1  0
  9 10  2  0
 10 11  1  0
 10 43  1  0
 11 12  2  0
 11 44  1  0
 12 13  1  0
 12 45  1  0
 13 14  2  0
 13 46  1  0
 14  9  1  0
 14 47  1  0
 15 16  2  0
 15 48  1  0
 16 17  1  0
 16  6  1  0
 17 19  1  0
 17 18  2  0
 19 20  1  0
 19 49  1  0
 20 21  2  0
 21 22  1  0
 21 50  1  0
 22 23  2  0
 22 51  1  0
 23 25  1  0
 23 24  1  0
 24 52  1  0
 24 53  1  0
 24 54  1  0
 25 35  2  0
 25 26  1  0
 26 29  1  0
 26 28  2  0
 26 27  2  0
 29 30  1  0
 30 31  1  0
 30 55  1  0
 30 56  1  0
 31 32  1  0
 31 57  1  0
 31 58  1  0
 32 33  1  0
 33 34  1  0
 33 59  1  0
 33 60  1  0
 34 29  1  0
 34 61  1  0
 34 62  1  0
 35 20  1  0
 35 63  1  0
 36 37  2  0
 36 64  1  0
 37  2  1  0
 37 65  1  0
M  END
> <Name>
_AT11

> <activity>
7.328

> <prediction>
6.93040452380952

$$$$
_AT12
  SciTegic01182412303D

 64 67  0  0  0  0            999 V2000
    3.6334   -3.3839   -0.7203 C   0  0  0  0  0  4
    2.3513   -2.9551   -0.0876 C   0  0  0  0  0  4
    1.2561   -2.7052   -0.8711 C   0  0  0  0  0  4
    0.0609   -2.3082   -0.3335 C   0  0  0  0  0  4
   -0.0725   -2.1465    1.0430 C   0  0  0  0  0  4
   -1.3454   -1.7208    1.6006 C   0  0  0  0  0  4
   -2.5656   -1.9960    1.0397 N   0  0  0  0  0  3
   -3.5283   -1.4731    1.7490 N   0  0  0  0  0  3
   -4.9671   -1.5044    1.5477 C   0  0  0  0  0  4
   -5.5844   -0.2411    2.1558 C   0  0  0  0  0  4
   -5.6099   -2.6796    2.2286 C   0  0  0  0  0  4
   -2.9618   -0.8407    2.7964 C   0  0  0  0  0  4
   -1.5709   -0.9869    2.7230 C   0  0  0  0  0  4
   -0.6750   -0.4713    3.7637 C   0  0  0  0  0  4
   -1.1085   -0.4236    4.9672 O   0  0  0  0  0  2
    0.6404   -0.0243    3.5428 N   0  0  0  0  0  3
    1.3402    0.0374    2.3183 C   0  0  0  0  0  4
    0.6584   -0.3953    1.1699 C   0  0  0  0  0  4
    1.2191   -0.3825   -0.0832 C   0  0  0  0  0  4
    2.5178    0.0760   -0.2395 C   0  0  0  0  0  4
    3.1633    0.1005   -1.5924 C   0  0  0  0  0  4
    3.2190    0.5087    0.8567 C   0  0  0  0  0  4
    4.8573    1.0859    0.6630 S   0  0  0  0  0  6
    5.1302    2.0888    1.7635 O   0  0  0  0  0  2
    5.0333    1.8123   -0.6228 O   0  0  0  0  0  2
    5.9527   -0.2038    0.8417 N   0  0  0  0  0  3
    6.0792   -0.7124    2.1693 C   0  0  0  0  0  4
    6.8107   -2.0563    2.0890 C   0  0  0  0  0  4
    8.0098   -1.8664    1.4262 O   0  0  0  0  0  2
    7.8769   -1.4003    0.1396 C   0  0  0  0  0  4
    7.2316   -0.0194    0.2376 C   0  0  0  0  0  4
    2.6114    0.4777    2.1054 C   0  0  0  0  0  4
    1.0487   -2.4060    1.8064 C   0  0  0  0  0  4
    2.2519   -2.8036    1.2860 C   0  0  0  0  0  4
    4.2207   -2.5212   -0.9564 H   0  0  0  0  0  1
    3.4238   -3.9290   -1.6169 H   0  0  0  0  0  1
    4.1747   -4.0090   -0.0412 H   0  0  0  0  0  1
    1.3366   -2.8232   -1.9316 H   0  0  0  0  0  1
   -0.7751   -2.1213   -0.9747 H   0  0  0  0  0  1
   -5.1721   -1.5449    0.4983 H   0  0  0  0  0  1
   -6.6444   -0.2571    2.0113 H   0  0  0  0  0  1
   -5.1722    0.6229    1.6777 H   0  0  0  0  0  1
   -5.3676   -0.2068    3.2030 H   0  0  0  0  0  1
   -6.6652   -2.6602    2.0529 H   0  0  0  0  0  1
   -5.4225   -2.6285    3.2808 H   0  0  0  0  0  1
   -5.1997   -3.5869    1.8369 H   0  0  0  0  0  1
   -3.4905   -0.3115    3.5615 H   0  0  0  0  0  1
    1.1552    0.2968    4.3752 H   0  0  0  0  0  1
   -0.3449   -0.7517    1.2762 H   0  0  0  0  0  1
    0.6599   -0.7227   -0.9296 H   0  0  0  0  0  1
    2.9687    1.0414   -2.0635 H   0  0  0  0  0  1
    2.7622   -0.6888   -2.1933 H   0  0  0  0  0  1
    4.2195   -0.0335   -1.4862 H   0  0  0  0  0  1
    5.1095   -0.8511    2.5998 H   0  0  0  0  0  1
    6.6411   -0.0276    2.7694 H   0  0  0  0  0  1
    6.2106   -2.7620    1.5535 H   0  0  0  0  0  1
    6.9986   -2.4242    3.0760 H   0  0  0  0  0  1
    7.2539   -2.0589   -0.4287 H   0  0  0  0  0  1
    8.8370   -1.3264   -0.3269 H   0  0  0  0  0  1
    7.1203    0.4052   -0.7383 H   0  0  0  0  0  1
    7.8343    0.6268    0.8410 H   0  0  0  0  0  1
    3.1745    0.8193    2.9487 H   0  0  0  0  0  1
    0.9731   -2.2894    2.8673 H   0  0  0  0  0  1
    3.0913   -2.9919    1.9224 H   0  0  0  0  0  1
  1  2  1  0
  1 35  1  0
  1 36  1  0
  1 37  1  0
  2  3  2  0
  3  4  1  0
  3 38  1  0
  4  5  2  0
  4 39  1  0
  5 33  1  0
  5  6  1  0
  6  7  2  0
  7  8  1  0
  8 12  1  0
  8  9  1  0
  9 11  1  0
  9 10  1  0
  9 40  1  0
 10 41  1  0
 10 42  1  0
 10 43  1  0
 11 44  1  0
 11 45  1  0
 11 46  1  0
 12 13  2  0
 12 47  1  0
 13 14  1  0
 13  6  1  0
 14 16  1  0
 14 15  2  0
 16 17  1  0
 16 48  1  0
 17 18  2  0
 18 19  1  0
 18 49  1  0
 19 20  2  0
 19 50  1  0
 20 22  1  0
 20 21  1  0
 21 51  1  0
 21 52  1  0
 21 53  1  0
 22 32  2  0
 22 23  1  0
 23 26  1  0
 23 25  2  0
 23 24  2  0
 26 27  1  0
 27 28  1  0
 27 54  1  0
 27 55  1  0
 28 29  1  0
 28 56  1  0
 28 57  1  0
 29 30  1  0
 30 31  1  0
 30 58  1  0
 30 59  1  0
 31 26  1  0
 31 60  1  0
 31 61  1  0
 32 17  1  0
 32 62  1  0
 33 34  2  0
 33 63  1  0
 34  2  1  0
 34 64  1  0
M  END
> <Name>
_AT12

> <activity>
7.309

> <prediction>
7.40004142857143

$$$$
_AT13
  SciTegic01182412303D

 67 70  0  0  0  0            999 V2000
   -0.8161    2.3096  -11.0253 C   0  0  0  0  0  4
   -1.4342    1.6216   -9.8339 C   0  0  0  0  0  4
   -0.3508    1.4662   -8.7818 C   0  0  0  0  0  4
    0.1637    2.8403   -8.4238 C   0  0  0  0  0  4
    1.2138    2.6866   -7.4273 N   0  0  0  0  0  3
    2.0094    1.6030   -7.3485 C   0  0  0  0  0  4
    2.9104    1.7656   -6.2912 C   0  0  0  0  0  4
    3.9516    0.7753   -6.0006 C   0  0  0  0  0  4
    4.4273    0.1074   -6.9825 O   0  0  0  0  0  2
    4.4620    0.5152   -4.7241 N   0  0  0  0  0  3
    4.0723    1.1233   -3.5075 C   0  0  0  0  0  4
    2.8201    1.7666   -3.4493 C   0  0  0  0  0  4
    2.3780    2.3644   -2.3003 C   0  0  0  0  0  4
    3.1074    2.3849   -1.1310 C   0  0  0  0  0  4
    2.5844    3.0453    0.0933 C   0  0  0  0  0  4
    4.3308    1.7630   -1.1687 C   0  0  0  0  0  4
    5.3418    1.7297    0.2575 S   0  0  0  0  0  6
    4.6434    2.4661    1.3734 O   0  0  0  0  0  2
    6.6373    2.4368   -0.0350 O   0  0  0  0  0  2
    5.6791    0.1420    0.7731 N   0  0  0  0  0  3
    6.8767   -0.4287    0.1963 C   0  0  0  0  0  4
    7.1764   -1.6838    1.0072 C   0  0  0  0  0  4
    6.0208   -2.1954    1.5869 O   0  0  0  0  0  2
    5.4640   -1.3991    2.5556 C   0  0  0  0  0  4
    5.8050    0.0555    2.2135 C   0  0  0  0  0  4
    4.7922    1.1469   -2.3428 C   0  0  0  0  0  4
    2.6251    2.9678   -5.7488 C   0  0  0  0  0  4
    3.2575    3.6059   -4.6109 C   0  0  0  0  0  4
    4.5845    3.3871   -4.2726 C   0  0  0  0  0  4
    5.1386    4.0286   -3.1715 C   0  0  0  0  0  4
    4.3471    4.8849   -2.4223 C   0  0  0  0  0  4
    4.9374    5.5651   -1.2506 C   0  0  0  0  0  4
    3.0347    5.1111   -2.7437 C   0  0  0  0  0  4
    2.5008    4.4717   -3.8328 C   0  0  0  0  0  4
    1.5861    3.4899   -6.4765 N   0  0  0  0  0  3
   -1.5558    2.4350  -11.7882 H   0  0  0  0  0  1
   -0.0113    1.7141  -11.4032 H   0  0  0  0  0  1
   -0.4425    3.2677  -10.7297 H   0  0  0  0  0  1
   -1.8058    0.6598  -10.1199 H   0  0  0  0  0  1
   -2.2370    2.2134   -9.4465 H   0  0  0  0  0  1
    0.4486    0.8708   -9.1709 H   0  0  0  0  0  1
   -0.7565    0.9939   -7.9117 H   0  0  0  0  0  1
   -0.6324    3.4322   -8.0229 H   0  0  0  0  0  1
    0.5589    3.3179   -9.2960 H   0  0  0  0  0  1
    1.9599    0.7509   -7.9937 H   0  0  0  0  0  1
    5.2032   -0.1975   -4.6633 H   0  0  0  0  0  1
    2.2015    1.7883   -4.3221 H   0  0  0  0  0  1
    1.4192    2.8392   -2.3102 H   0  0  0  0  0  1
    2.0283    2.3367    0.6709 H   0  0  0  0  0  1
    1.9464    3.8580   -0.1847 H   0  0  0  0  0  1
    3.4020    3.4166    0.6752 H   0  0  0  0  0  1
    7.6899    0.2631    0.2678 H   0  0  0  0  0  1
    6.7115   -0.6801   -0.8305 H   0  0  0  0  0  1
    7.8766   -1.4417    1.7792 H   0  0  0  0  0  1
    7.5999   -2.4240    0.3609 H   0  0  0  0  0  1
    5.8682   -1.6529    3.5132 H   0  0  0  0  0  1
    4.4022   -1.5310    2.5703 H   0  0  0  0  0  1
    6.8037    0.2892    2.5183 H   0  0  0  0  0  1
    5.1204    0.7245    2.6916 H   0  0  0  0  0  1
    5.7516    0.6735   -2.3269 H   0  0  0  0  0  1
    5.1829    2.7230   -4.8607 H   0  0  0  0  0  1
    6.1619    3.8637   -2.9057 H   0  0  0  0  0  1
    5.3579    6.5005   -1.5557 H   0  0  0  0  0  1
    5.7048    4.9493   -0.8299 H   0  0  0  0  0  1
    4.1770    5.7378   -0.5179 H   0  0  0  0  0  1
    2.4367    5.7752   -2.1552 H   0  0  0  0  0  1
    1.4764    4.6440   -4.0892 H   0  0  0  0  0  1
  1  2  1  0
  1 36  1  0
  1 37  1  0
  1 38  1  0
  2  3  1  0
  2 39  1  0
  2 40  1  0
  3  4  1  0
  3 41  1  0
  3 42  1  0
  4  5  1  0
  4 43  1  0
  4 44  1  0
  5  6  1  0
  6  7  2  0
  6 45  1  0
  7 27  1  0
  7  8  1  0
  8 10  1  0
  8  9  2  0
 10 11  1  0
 10 46  1  0
 11 12  2  0
 12 13  1  0
 12 47  1  0
 13 14  2  0
 13 48  1  0
 14 16  1  0
 14 15  1  0
 15 49  1  0
 15 50  1  0
 15 51  1  0
 16 26  2  0
 16 17  1  0
 17 20  1  0
 17 19  2  0
 17 18  2  0
 20 21  1  0
 21 22  1  0
 21 52  1  0
 21 53  1  0
 22 23  1  0
 22 54  1  0
 22 55  1  0
 23 24  1  0
 24 25  1  0
 24 56  1  0
 24 57  1  0
 25 20  1  0
 25 58  1  0
 25 59  1  0
 26 11  1  0
 26 60  1  0
 27 35  2  0
 27 28  1  0
 28 29  2  0
 29 30  1  0
 29 61  1  0
 30 31  2  0
 30 62  1  0
 31 33  1  0
 31 32  1  0
 32 63  1  0
 32 64  1  0
 32 65  1  0
 33 34  2  0
 33 66  1  0
 34 28  1  0
 34 67  1  0
 35  5  1  0
M  END
> <Name>
_AT13

> <activity>
7.28

> <prediction>
7.38749976190476

$$$$
_AT14
  SciTegic01182412303D

 65 69  0  0  0  0            999 V2000
    3.2154   -0.6483    3.4262 C   0  0  0  0  0  4
    2.1291   -1.0283    2.4787 C   0  0  0  0  0  4
    2.3189   -1.9744    1.4949 C   0  0  0  0  0  4
    1.3155   -2.3292    0.6161 C   0  0  0  0  0  4
    0.0706   -1.7479    0.6859 C   0  0  0  0  0  4
   -0.9835   -2.1006   -0.2870 C   0  0  0  0  0  4
   -2.3237   -2.0838   -0.0014 N   0  0  0  0  0  3
   -2.9898   -2.4700   -1.0689 N   0  0  0  0  0  3
   -4.4493   -2.5781   -1.1440 C   0  0  0  0  0  4
   -5.0605   -2.9046    0.1930 C   0  0  0  0  0  4
   -6.5251   -3.0769    0.3508 C   0  0  0  0  0  4
   -5.6150   -4.3053    0.2966 C   0  0  0  0  0  4
   -2.1426   -2.7464   -2.0673 C   0  0  0  0  0  4
   -0.8583   -2.5055   -1.5600 C   0  0  0  0  0  4
    0.3806   -2.6093   -2.3486 C   0  0  0  0  0  4
    0.3683   -3.4446   -3.2869 O   0  0  0  0  0  2
    1.5390   -1.8504   -2.1257 N   0  0  0  0  0  3
    1.7482   -0.8761   -1.1159 C   0  0  0  0  0  4
    0.6269   -0.2986   -0.4932 C   0  0  0  0  0  4
    0.7312    0.6407    0.4978 C   0  0  0  0  0  4
    1.9534    1.0805    0.9492 C   0  0  0  0  0  4
    2.1153    2.0854    2.0088 C   0  0  0  0  0  4
    3.0736    0.5253    0.3508 C   0  0  0  0  0  4
    4.6702    1.0285    0.8538 S   0  0  0  0  0  6
    5.3755    1.6017   -0.3391 O   0  0  0  0  0  2
    4.5995    2.1062    1.8996 O   0  0  0  0  0  2
    5.4806   -0.3667    1.4357 N   0  0  0  0  0  3
    6.2196   -1.0893    0.4602 C   0  0  0  0  0  4
    7.0205   -2.1543    1.2198 C   0  0  0  0  0  4
    7.9565   -1.5855    2.0475 O   0  0  0  0  0  2
    7.5504   -0.4763    2.7415 C   0  0  0  0  0  4
    6.0814   -0.2163    2.7163 C   0  0  0  0  0  4
    2.9621   -0.4336   -0.6609 C   0  0  0  0  0  4
   -0.1281   -0.7938    1.6744 C   0  0  0  0  0  4
    0.8844   -0.4420    2.5541 C   0  0  0  0  0  4
    3.7775    0.1649    3.0167 H   0  0  0  0  0  1
    3.8622   -1.4863    3.5819 H   0  0  0  0  0  1
    2.7862   -0.3507    4.3601 H   0  0  0  0  0  1
    3.2742   -2.4488    1.4095 H   0  0  0  0  0  1
    1.5092   -3.0690   -0.1323 H   0  0  0  0  0  1
   -4.7031   -3.3518   -1.8380 H   0  0  0  0  0  1
   -4.8474   -1.6462   -1.4874 H   0  0  0  0  0  1
   -4.4923   -2.4628    0.9848 H   0  0  0  0  0  1
   -7.1801   -2.8603   -0.4672 H   0  0  0  0  0  1
   -6.9997   -2.8032    1.2699 H   0  0  0  0  0  1
   -5.6246   -4.9463   -0.5601 H   0  0  0  0  0  1
   -5.4443   -4.8892    1.1769 H   0  0  0  0  0  1
   -2.3941   -3.0825   -3.0516 H   0  0  0  0  0  1
    2.3266   -2.0196   -2.7675 H   0  0  0  0  0  1
   -0.3487   -0.6062   -0.8072 H   0  0  0  0  0  1
   -0.1606    1.0425    0.9316 H   0  0  0  0  0  1
    2.1620    1.5969    2.9596 H   0  0  0  0  0  1
    1.2826    2.7572    1.9934 H   0  0  0  0  0  1
    3.0192    2.6341    1.8449 H   0  0  0  0  0  1
    6.8823   -0.4319   -0.0629 H   0  0  0  0  0  1
    5.5547   -1.5545   -0.2372 H   0  0  0  0  0  1
    7.5186   -2.7845    0.5130 H   0  0  0  0  0  1
    6.3470   -2.7415    1.8085 H   0  0  0  0  0  1
    8.0449    0.3756    2.3235 H   0  0  0  0  0  1
    7.8483   -0.5964    3.7621 H   0  0  0  0  0  1
    5.9131    0.7866    3.0494 H   0  0  0  0  0  1
    5.6088   -0.8999    3.3902 H   0  0  0  0  0  1
    3.8545   -0.8349   -1.0939 H   0  0  0  0  0  1
   -1.0834   -0.3194    1.7593 H   0  0  0  0  0  1
    0.6960    0.2973    3.3043 H   0  0  0  0  0  1
  1  2  1  0
  1 36  1  0
  1 37  1  0
  1 38  1  0
  2  3  2  0
  3  4  1  0
  3 39  1  0
  4  5  2  0
  4 40  1  0
  5 34  1  0
  5  6  1  0
  6  7  2  0
  7  8  1  0
  8 13  1  0
  8  9  1  0
  9 10  1  0
  9 41  1  0
  9 42  1  0
 10 11  1  0
 10 43  1  0
 11 12  1  0
 11 44  1  0
 11 45  1  0
 12 10  1  0
 12 46  1  0
 12 47  1  0
 13 14  2  0
 13 48  1  0
 14 15  1  0
 14  6  1  0
 15 17  1  0
 15 16  2  0
 17 18  1  0
 17 49  1  0
 18 19  2  0
 19 20  1  0
 19 50  1  0
 20 21  2  0
 20 51  1  0
 21 23  1  0
 21 22  1  0
 22 52  1  0
 22 53  1  0
 22 54  1  0
 23 33  2  0
 23 24  1  0
 24 27  1  0
 24 26  2  0
 24 25  2  0
 27 28  1  0
 28 29  1  0
 28 55  1  0
 28 56  1  0
 29 30  1  0
 29 57  1  0
 29 58  1  0
 30 31  1  0
 31 32  1  0
 31 59  1  0
 31 60  1  0
 32 27  1  0
 32 61  1  0
 32 62  1  0
 33 18  1  0
 33 63  1  0
 34 35  2  0
 34 64  1  0
 35  2  1  0
 35 65  1  0
M  END
> <Name>
_AT14

> <activity>
7.114

> <prediction>
7.50034976190476

$$$$
_AT15
  SciTegic01182412303D

 64 67  0  0  0  0            999 V2000
    2.5081   -2.5455    0.5428 C   0  0  0  0  0  4
    2.6617   -1.4283   -0.3996 C   0  0  0  0  0  4
    2.1043   -1.5925   -1.6678 C   0  0  0  0  0  4
    2.1832   -0.5902   -2.6057 C   0  0  0  0  0  4
    2.8123    0.6250   -2.3499 C   0  0  0  0  0  4
    2.8916    1.6028   -3.3876 N   0  0  0  0  0  3
    2.1122    1.6906   -4.5314 C   0  0  0  0  0  4
    2.4349    2.6865   -5.2949 O   0  0  0  0  0  2
    1.0258    0.8787   -5.0058 C   0  0  0  0  0  4
    0.7561    0.6959   -6.3794 C   0  0  0  0  0  4
   -0.2949   -0.1068   -6.5530 N   0  0  0  0  0  3
   -0.8240   -0.4855   -7.8744 C   0  0  0  0  0  4
   -2.3116   -0.5944   -7.7384 C   0  0  0  0  0  4
   -0.1470   -1.7385   -8.3360 C   0  0  0  0  0  4
   -0.7139   -0.4485   -5.3810 N   0  0  0  0  0  3
    0.0707    0.1372   -4.3913 C   0  0  0  0  0  4
   -0.1276   -0.1289   -2.9899 C   0  0  0  0  0  4
   -1.1561   -1.0151   -2.6325 C   0  0  0  0  0  4
   -1.4852   -1.2854   -1.3267 C   0  0  0  0  0  4
   -0.8022   -0.6826   -0.2912 C   0  0  0  0  0  4
   -1.1167   -0.9440    1.1328 C   0  0  0  0  0  4
   -0.0529   -1.4956    1.8123 F   0  0  0  0  0  1
   -1.5255    0.1746    1.8021 F   0  0  0  0  0  1
   -2.1641   -1.8545    1.2045 F   0  0  0  0  0  1
    0.2087    0.1894   -0.6212 C   0  0  0  0  0  4
    0.5340    0.4564   -1.9558 C   0  0  0  0  0  4
    3.3513    0.7657   -1.1046 C   0  0  0  0  0  4
    3.2841   -0.2422   -0.1330 C   0  0  0  0  0  4
    4.0593    0.0184    1.3990 S   0  0  0  0  0  6
    3.3274   -0.7675    2.4865 O   0  0  0  0  0  2
    3.9001    1.4663    1.8394 O   0  0  0  0  0  2
    5.6903   -0.4188    1.4795 N   0  0  0  0  0  3
    6.5696    0.6529    1.1331 C   0  0  0  0  0  4
    7.9877    0.0652    1.0492 C   0  0  0  0  0  4
    8.2828   -0.6836    2.1654 O   0  0  0  0  0  2
    7.4036   -0.4952    3.2186 C   0  0  0  0  0  4
    6.0216   -0.9667    2.7647 C   0  0  0  0  0  4
    3.3375   -3.2139    0.4419 H   0  0  0  0  0  1
    1.5998   -3.0695    0.3297 H   0  0  0  0  0  1
    2.4750   -2.1665    1.5429 H   0  0  0  0  0  1
    1.6096   -2.5089   -1.9134 H   0  0  0  0  0  1
    1.7446   -0.7503   -3.5685 H   0  0  0  0  0  1
    3.6131    2.3289   -3.2730 H   0  0  0  0  0  1
    1.3186    1.1408   -7.1735 H   0  0  0  0  0  1
   -0.6054    0.2876   -8.5812 H   0  0  0  0  0  1
   -2.7368   -0.8691   -8.6810 H   0  0  0  0  0  1
   -2.7114    0.3483   -7.4279 H   0  0  0  0  0  1
   -2.5494   -1.3402   -7.0089 H   0  0  0  0  0  1
   -0.5286   -2.0172   -9.2960 H   0  0  0  0  0  1
   -0.3357   -2.5248   -7.6352 H   0  0  0  0  0  1
    0.9071   -1.5691   -8.4067 H   0  0  0  0  0  1
   -1.7071   -1.5007   -3.4106 H   0  0  0  0  0  1
   -2.2788   -1.9700   -1.1109 H   0  0  0  0  0  1
    0.7580    0.6739    0.1588 H   0  0  0  0  0  1
    1.3274    1.1419   -2.1692 H   0  0  0  0  0  1
    3.8454    1.6827   -0.8597 H   0  0  0  0  0  1
    6.5321    1.4153    1.8829 H   0  0  0  0  0  1
    6.2878    1.0679    0.1880 H   0  0  0  0  0  1
    8.6931    0.8658    0.9694 H   0  0  0  0  0  1
    8.0563   -0.5584    0.1824 H   0  0  0  0  0  1
    7.3665    0.5416    3.4806 H   0  0  0  0  0  1
    7.7228   -1.0658    4.0656 H   0  0  0  0  0  1
    5.2911   -0.6500    3.4795 H   0  0  0  0  0  1
    6.0191   -2.0348    2.7015 H   0  0  0  0  0  1
  1  2  1  0
  1 38  1  0
  1 39  1  0
  1 40  1  0
  2  3  2  0
  3  4  1  0
  3 41  1  0
  4  5  2  0
  4 42  1  0
  5 27  1  0
  5  6  1  0
  6  7  1  0
  6 43  1  0
  7  9  1  0
  7  8  2  0
  9 10  2  0
 10 11  1  0
 10 44  1  0
 11 15  1  0
 11 12  1  0
 12 14  1  0
 12 13  1  0
 12 45  1  0
 13 46  1  0
 13 47  1  0
 13 48  1  0
 14 49  1  0
 14 50  1  0
 14 51  1  0
 15 16  2  0
 16 17  1  0
 16  9  1  0
 17 18  2  0
 18 19  1  0
 18 52  1  0
 19 20  2  0
 19 53  1  0
 20 25  1  0
 20 21  1  0
 21 24  1  0
 21 23  1  0
 21 22  1  0
 25 26  2  0
 25 54  1  0
 26 17  1  0
 26 55  1  0
 27 28  2  0
 27 56  1  0
 28 29  1  0
 28  2  1  0
 29 32  1  0
 29 31  2  0
 29 30  2  0
 32 33  1  0
 33 34  1  0
 33 57  1  0
 33 58  1  0
 34 35  1  0
 34 59  1  0
 34 60  1  0
 35 36  1  0
 36 37  1  0
 36 61  1  0
 36 62  1  0
 37 32  1  0
 37 63  1  0
 37 64  1  0
M  END
> <Name>
_AT15

> <activity>
7.111

> <prediction>
7.21718309523809

$$$$
_AT16
  SciTegic01182412303D

 68 71  0  0  0  0            999 V2000
   -2.8656   -8.1743   -4.5791 C   0  0  0  0  0  4
   -2.5864   -6.9230   -3.8257 C   0  0  0  0  0  4
   -1.9029   -5.8642   -4.3770 C   0  0  0  0  0  4
   -1.6498   -4.7156   -3.6670 C   0  0  0  0  0  4
   -2.0741   -4.5642   -2.3473 C   0  0  0  0  0  4
   -1.8059   -3.3567   -1.5742 C   0  0  0  0  0  4
   -2.5904   -2.8442   -0.5790 N   0  0  0  0  0  3
   -2.0790   -1.7470   -0.0946 N   0  0  0  0  0  3
   -2.5694   -0.8609    0.9671 C   0  0  0  0  0  4
   -3.8558   -1.3482    1.5383 C   0  0  0  0  0  4
   -3.7753   -2.7117    2.1281 C   0  0  0  0  0  4
   -5.0455   -3.2550    2.7014 C   0  0  0  0  0  4
   -5.5920   -2.5357    3.7327 O   0  0  0  0  0  2
   -0.9347   -1.5008   -0.7580 C   0  0  0  0  0  4
   -0.7506   -2.5174   -1.6987 C   0  0  0  0  0  4
    0.4489   -2.5956   -2.5501 C   0  0  0  0  0  4
    0.2937   -3.1325   -3.7096 O   0  0  0  0  0  2
    1.7202   -2.1231   -2.1749 N   0  0  0  0  0  3
    2.0321   -1.5293   -0.9354 C   0  0  0  0  0  4
    1.1668   -1.7583    0.1493 C   0  0  0  0  0  4
    1.3895   -1.2371    1.3993 C   0  0  0  0  0  4
    2.4908   -0.4504    1.6583 C   0  0  0  0  0  4
    2.7042    0.1093    3.0303 C   0  0  0  0  0  4
    3.3612   -0.2026    0.6280 C   0  0  0  0  0  4
    4.7774    0.7750    0.8430 S   0  0  0  0  0  6
    5.0297    1.5691   -0.4344 O   0  0  0  0  0  2
    4.4999    1.8596    1.8961 O   0  0  0  0  0  2
    6.1691   -0.0193    1.2949 N   0  0  0  0  0  3
    6.4091   -0.1517    2.6636 C   0  0  0  0  0  4
    7.8445   -0.5342    2.9978 C   0  0  0  0  0  4
    8.1571   -1.6432    2.2395 O   0  0  0  0  0  2
    8.2438   -1.2494    0.9096 C   0  0  0  0  0  4
    6.9331   -0.7237    0.3589 C   0  0  0  0  0  4
    3.1164   -0.7452   -0.6451 C   0  0  0  0  0  4
   -2.7621   -5.6353   -1.8006 C   0  0  0  0  0  4
   -3.0094   -6.7823   -2.5240 C   0  0  0  0  0  4
   -2.0623   -8.8657   -4.4324 H   0  0  0  0  0  1
   -2.9574   -7.9501   -5.6213 H   0  0  0  0  0  1
   -3.7780   -8.6073   -4.2257 H   0  0  0  0  0  1
   -1.5586   -5.9372   -5.3875 H   0  0  0  0  0  1
   -1.1142   -3.9180   -4.1379 H   0  0  0  0  0  1
   -2.7184    0.1178    0.5611 H   0  0  0  0  0  1
   -1.8382   -0.8160    1.7470 H   0  0  0  0  0  1
   -4.5875   -1.3615    0.7577 H   0  0  0  0  0  1
   -4.1637   -0.6674    2.3042 H   0  0  0  0  0  1
   -3.0470   -2.6868    2.9117 H   0  0  0  0  0  1
   -3.4499   -3.3818    1.3600 H   0  0  0  0  0  1
   -4.8472   -4.2435    3.0599 H   0  0  0  0  0  1
   -5.7682   -3.2997    1.9136 H   0  0  0  0  0  1
   -6.3904   -2.9590    4.0258 H   0  0  0  0  0  1
   -0.2796   -0.6709   -0.5938 H   0  0  0  0  0  1
    2.4831   -2.2187   -2.8603 H   0  0  0  0  0  1
    0.2987   -2.3642   -0.0064 H   0  0  0  0  0  1
    0.6956   -1.4454    2.1868 H   0  0  0  0  0  1
    3.2826   -0.5791    3.6103 H   0  0  0  0  0  1
    1.7571    0.2661    3.5028 H   0  0  0  0  0  1
    3.2255    1.0410    2.9583 H   0  0  0  0  0  1
    5.7589   -0.9091    3.0491 H   0  0  0  0  0  1
    6.1891    0.7821    3.1373 H   0  0  0  0  0  1
    7.9294   -0.7660    4.0390 H   0  0  0  0  0  1
    8.5047    0.2727    2.7571 H   0  0  0  0  0  1
    8.5458   -2.0923    0.3238 H   0  0  0  0  0  1
    8.9806   -0.4775    0.8303 H   0  0  0  0  0  1
    6.3565   -1.5547    0.0097 H   0  0  0  0  0  1
    7.1493   -0.0703   -0.4603 H   0  0  0  0  0  1
    3.8139   -0.5346   -1.4286 H   0  0  0  0  0  1
   -3.1105   -5.5705   -0.7910 H   0  0  0  0  0  1
   -3.5446   -7.5848   -2.0609 H   0  0  0  0  0  1
  1  2  1  0
  1 37  1  0
  1 38  1  0
  1 39  1  0
  2  3  2  0
  3  4  1  0
  3 40  1  0
  4  5  2  0
  4 41  1  0
  5 35  1  0
  5  6  1  0
  6  7  2  0
  7  8  1  0
  8 14  1  0
  8  9  1  0
  9 10  1  0
  9 42  1  0
  9 43  1  0
 10 11  1  0
 10 44  1  0
 10 45  1  0
 11 12  1  0
 11 46  1  0
 11 47  1  0
 12 13  1  0
 12 48  1  0
 12 49  1  0
 13 50  1  0
 14 15  2  0
 14 51  1  0
 15 16  1  0
 15  6  1  0
 16 18  1  0
 16 17  2  0
 18 19  1  0
 18 52  1  0
 19 20  2  0
 20 21  1  0
 20 53  1  0
 21 22  2  0
 21 54  1  0
 22 24  1  0
 22 23  1  0
 23 55  1  0
 23 56  1  0
 23 57  1  0
 24 34  2  0
 24 25  1  0
 25 28  1  0
 25 27  2  0
 25 26  2  0
 28 29  1  0
 29 30  1  0
 29 58  1  0
 29 59  1  0
 30 31  1  0
 30 60  1  0
 30 61  1  0
 31 32  1  0
 32 33  1  0
 32 62  1  0
 32 63  1  0
 33 28  1  0
 33 64  1  0
 33 65  1  0
 34 19  1  0
 34 66  1  0
 35 36  2  0
 35 67  1  0
 36  2  1  0
 36 68  1  0
M  END
> <Name>
_AT16

> <activity>
6.885

> <prediction>
7.20080333333333

$$$$
_AT17
  SciTegic01182412303D

 65 68  0  0  0  0            999 V2000
    3.6460   -6.9115    3.2755 C   0  0  0  0  0  4
    2.3505   -7.1180    2.7422 O   0  0  0  0  0  2
    1.7351   -6.0352    2.1300 C   0  0  0  0  0  4
    0.4642   -6.2510    1.6281 C   0  0  0  0  0  4
   -0.1622   -5.1877    1.0163 C   0  0  0  0  0  4
    0.4477   -3.9547    0.9059 C   0  0  0  0  0  4
    1.7340   -3.7254    1.4109 C   0  0  0  0  0  4
    2.3136   -2.4013    1.2561 C   0  0  0  0  0  4
    1.5802   -1.2530    1.2062 N   0  0  0  0  0  3
    2.3489   -0.2103    1.0426 N   0  0  0  0  0  3
    1.9553    1.2049    0.9356 C   0  0  0  0  0  4
    1.9960    1.8789    2.2950 C   0  0  0  0  0  4
    0.5681    1.3094    0.3235 C   0  0  0  0  0  4
    3.6083   -0.6567    0.9831 C   0  0  0  0  0  4
    3.6122   -2.0457    1.1180 C   0  0  0  0  0  4
    4.8289   -2.8683    1.1747 C   0  0  0  0  0  4
    5.8354   -2.3163    1.6790 O   0  0  0  0  0  2
    4.9370   -4.1866    0.7220 N   0  0  0  0  0  3
    3.9423   -4.9833    0.1161 C   0  0  0  0  0  4
    2.8408   -4.3422   -0.4551 C   0  0  0  0  0  4
    1.8215   -5.0091   -1.0872 C   0  0  0  0  0  4
    1.8466   -6.3938   -1.1873 C   0  0  0  0  0  4
    0.7398   -7.1234   -1.8812 C   0  0  0  0  0  4
    2.9159   -7.0476   -0.6357 C   0  0  0  0  0  4
    3.0354   -8.7899   -0.7240 S   0  0  0  0  0  6
    2.3938   -9.3053   -1.9875 O   0  0  0  0  0  2
    4.4532   -9.2265   -0.7249 O   0  0  0  0  0  2
    2.2731   -9.5167    0.6734 N   0  0  0  0  0  3
    3.0737   -9.2644    1.8608 C   0  0  0  0  0  4
    2.2980   -9.7377    3.0478 C   0  0  0  0  0  4
    1.1088   -9.0293    3.1649 O   0  0  0  0  0  2
    0.3174   -9.3194    2.0661 C   0  0  0  0  0  4
    1.0003   -8.7904    0.8285 C   0  0  0  0  0  4
    3.9527   -6.3513    0.0093 C   0  0  0  0  0  4
    2.3500   -4.7919    2.0185 C   0  0  0  0  0  4
    4.0000   -7.8207    3.7146 H   0  0  0  0  0  1
    3.6064   -6.1464    4.0225 H   0  0  0  0  0  1
    4.3104   -6.6113    2.4923 H   0  0  0  0  0  1
   -0.0129   -7.2051    1.7117 H   0  0  0  0  0  1
   -1.1459   -5.3210    0.6169 H   0  0  0  0  0  1
   -0.0742   -3.1551    0.4231 H   0  0  0  0  0  1
    2.6495    1.7032    0.2916 H   0  0  0  0  0  1
    1.7070    2.9042    2.1936 H   0  0  0  0  0  1
    2.9890    1.8257    2.6899 H   0  0  0  0  0  1
    1.3207    1.3821    2.9598 H   0  0  0  0  0  1
    0.2881    2.3394    0.2485 H   0  0  0  0  0  1
   -0.1349    0.7928    0.9431 H   0  0  0  0  0  1
    0.5745    0.8695   -0.6519 H   0  0  0  0  0  1
    4.4764   -0.0449    0.8527 H   0  0  0  0  0  1
    5.8574   -4.6318    0.8463 H   0  0  0  0  0  1
    2.7890   -3.2751   -0.3969 H   0  0  0  0  0  1
    1.0039   -4.4596   -1.5047 H   0  0  0  0  0  1
    0.9758   -7.2252   -2.9198 H   0  0  0  0  0  1
   -0.1718   -6.5733   -1.7749 H   0  0  0  0  0  1
    0.6237   -8.0936   -1.4451 H   0  0  0  0  0  1
    3.2714   -8.2166    1.9500 H   0  0  0  0  0  1
    3.9991   -9.7976    1.7952 H   0  0  0  0  0  1
    2.8831   -9.5924    3.9317 H   0  0  0  0  0  1
    2.0781  -10.7785    2.9327 H   0  0  0  0  0  1
   -0.6391   -8.8530    2.1773 H   0  0  0  0  0  1
    0.1903  -10.3786    1.9829 H   0  0  0  0  0  1
    1.1895   -7.7428    0.9364 H   0  0  0  0  0  1
    0.3804   -8.9545   -0.0280 H   0  0  0  0  0  1
    4.7699   -6.9013    0.4272 H   0  0  0  0  0  1
    3.3338   -4.6627    2.4187 H   0  0  0  0  0  1
  1  2  1  0
  1 36  1  0
  1 37  1  0
  1 38  1  0
  2  3  1  0
  3  4  2  0
  4  5  1  0
  4 39  1  0
  5  6  2  0
  5 40  1  0
  6  7  1  0
  6 41  1  0
  7 35  2  0
  7  8  1  0
  8  9  2  0
  9 10  1  0
 10 14  1  0
 10 11  1  0
 11 13  1  0
 11 12  1  0
 11 42  1  0
 12 43  1  0
 12 44  1  0
 12 45  1  0
 13 46  1  0
 13 47  1  0
 13 48  1  0
 14 15  2  0
 14 49  1  0
 15 16  1  0
 15  8  1  0
 16 18  1  0
 16 17  2  0
 18 19  1  0
 18 50  1  0
 19 20  2  0
 20 21  1  0
 20 51  1  0
 21 22  2  0
 21 52  1  0
 22 24  1  0
 22 23  1  0
 23 53  1  0
 23 54  1  0
 23 55  1  0
 24 34  2  0
 24 25  1  0
 25 28  1  0
 25 27  2  0
 25 26  2  0
 28 29  1  0
 29 30  1  0
 29 56  1  0
 29 57  1  0
 30 31  1  0
 30 58  1  0
 30 59  1  0
 31 32  1  0
 32 33  1  0
 32 60  1  0
 32 61  1  0
 33 28  1  0
 33 62  1  0
 33 63  1  0
 34 19  1  0
 34 64  1  0
 35  3  1  0
 35 65  1  0
M  END
> <Name>
_AT17

> <activity>
6.797

> <prediction>
6.95979642857143

$$$$
_AT18
  SciTegic01182412303D

 68 71  0  0  0  0            999 V2000
    0.1091   -9.2272    4.4977 C   0  0  0  0  0  4
    0.6054   -9.6040    3.2341 O   0  0  0  0  0  2
    0.0500   -9.0674    2.0691 C   0  0  0  0  0  4
   -1.2968   -8.7029    2.0950 C   0  0  0  0  0  4
   -1.8510   -8.1722    0.9423 C   0  0  0  0  0  4
   -1.1207   -7.9935   -0.2125 C   0  0  0  0  0  4
    0.1890   -8.3515   -0.2315 C   0  0  0  0  0  4
    1.0729   -8.2276   -1.4088 C   0  0  0  0  0  4
    0.6496   -7.0975   -2.2682 N   0  0  0  0  0  3
    0.5663   -5.8203   -1.9052 C   0  0  0  0  0  4
    0.1688   -5.0754   -3.0412 C   0  0  0  0  0  4
    0.0186   -3.6225   -3.0072 C   0  0  0  0  0  4
   -0.8861   -3.1293   -3.8169 O   0  0  0  0  0  2
    0.7034   -2.7098   -2.2150 N   0  0  0  0  0  3
    1.7240   -3.0021   -1.2843 C   0  0  0  0  0  4
    2.3980   -4.2340   -1.4139 C   0  0  0  0  0  4
    3.4186   -4.6256   -0.5663 C   0  0  0  0  0  4
    3.8336   -3.8013    0.4762 C   0  0  0  0  0  4
    4.9073   -4.2219    1.3860 C   0  0  0  0  0  4
    3.1997   -2.6012    0.6246 C   0  0  0  0  0  4
    3.6651   -1.5003    1.8713 S   0  0  0  0  0  6
    3.3970   -2.1086    3.2475 O   0  0  0  0  0  2
    2.7337   -0.2933    1.8323 O   0  0  0  0  0  2
    5.2510   -0.9721    1.8403 N   0  0  0  0  0  3
    5.5903    0.1896    1.1284 C   0  0  0  0  0  4
    6.7830    0.9277    1.7251 C   0  0  0  0  0  4
    7.8104   -0.0097    1.7850 O   0  0  0  0  0  2
    7.5187   -0.9005    2.7839 C   0  0  0  0  0  4
    6.1762   -1.5389    2.7393 C   0  0  0  0  0  4
    2.1620   -2.2293   -0.2542 C   0  0  0  0  0  4
    0.0332   -5.9705   -4.0473 C   0  0  0  0  0  4
   -0.3017   -5.8442   -5.4934 C   0  0  0  0  0  4
   -1.3328   -6.7188   -6.0475 C   0  0  0  0  0  4
    0.9774   -5.6718   -6.2996 C   0  0  0  0  0  4
    0.3392   -7.2134   -3.5182 N   0  0  0  0  0  3
    0.7634   -8.8862    0.9099 C   0  0  0  0  0  4
    0.6557   -9.7383    5.2625 H   0  0  0  0  0  1
   -0.9268   -9.4864    4.5658 H   0  0  0  0  0  1
    0.2214   -8.1707    4.6245 H   0  0  0  0  0  1
   -1.8844   -8.8299    2.9802 H   0  0  0  0  0  1
   -2.8833   -7.8909    0.9485 H   0  0  0  0  0  1
   -1.5805   -7.5773   -1.0844 H   0  0  0  0  0  1
    1.0311   -9.1341   -1.9757 H   0  0  0  0  0  1
    2.0765   -8.0598   -1.0778 H   0  0  0  0  0  1
    0.7643   -5.4270   -0.9300 H   0  0  0  0  0  1
    0.4399   -1.7193   -2.3169 H   0  0  0  0  0  1
    2.1069   -4.8952   -2.2032 H   0  0  0  0  0  1
    3.8944   -5.5726   -0.7134 H   0  0  0  0  0  1
    5.8505   -3.8981    0.9984 H   0  0  0  0  0  1
    4.9043   -5.2884    1.4723 H   0  0  0  0  0  1
    4.7491   -3.7856    2.3501 H   0  0  0  0  0  1
    4.7470    0.8481    1.1288 H   0  0  0  0  0  1
    5.8281   -0.0847    0.1218 H   0  0  0  0  0  1
    6.5477    1.2873    2.7050 H   0  0  0  0  0  1
    7.0636    1.7504    1.1012 H   0  0  0  0  0  1
    7.5996   -0.3806    3.7156 H   0  0  0  0  0  1
    8.2500   -1.6807    2.7462 H   0  0  0  0  0  1
    5.7546   -1.4830    3.7211 H   0  0  0  0  0  1
    6.3107   -2.5648    2.4667 H   0  0  0  0  0  1
    1.6901   -1.2812   -0.1015 H   0  0  0  0  0  1
   -0.7697   -4.8840   -5.5563 H   0  0  0  0  0  1
   -1.4570   -6.5083   -7.0892 H   0  0  0  0  0  1
   -2.2573   -6.5485   -5.5365 H   0  0  0  0  0  1
   -1.0391   -7.7401   -5.9226 H   0  0  0  0  0  1
    0.7351   -5.5813   -7.3378 H   0  0  0  0  0  1
    1.6085   -6.5234   -6.1535 H   0  0  0  0  0  1
    1.4879   -4.7895   -5.9742 H   0  0  0  0  0  1
    1.7957   -9.1669    0.8877 H   0  0  0  0  0  1
  1  2  1  0
  1 37  1  0
  1 38  1  0
  1 39  1  0
  2  3  1  0
  3  4  2  0
  4  5  1  0
  4 40  1  0
  5  6  2  0
  5 41  1  0
  6  7  1  0
  6 42  1  0
  7 36  2  0
  7  8  1  0
  8  9  1  0
  8 43  1  0
  8 44  1  0
  9 10  1  0
 10 11  2  0
 10 45  1  0
 11 31  1  0
 11 12  1  0
 12 14  1  0
 12 13  2  0
 14 15  1  0
 14 46  1  0
 15 16  2  0
 16 17  1  0
 16 47  1  0
 17 18  2  0
 17 48  1  0
 18 20  1  0
 18 19  1  0
 19 49  1  0
 19 50  1  0
 19 51  1  0
 20 30  2  0
 20 21  1  0
 21 24  1  0
 21 23  2  0
 21 22  2  0
 24 25  1  0
 25 26  1  0
 25 52  1  0
 25 53  1  0
 26 27  1  0
 26 54  1  0
 26 55  1  0
 27 28  1  0
 28 29  1  0
 28 56  1  0
 28 57  1  0
 29 24  1  0
 29 58  1  0
 29 59  1  0
 30 15  1  0
 30 60  1  0
 31 35  2  0
 31 32  1  0
 32 34  1  0
 32 33  1  0
 32 61  1  0
 33 62  1  0
 33 63  1  0
 33 64  1  0
 34 65  1  0
 34 66  1  0
 34 67  1  0
 35  9  1  0
 36  3  1  0
 36 68  1  0
M  END
> <Name>
_AT18

> <activity>
6.7

> <prediction>
6.71588642857143

$$$$
_AT19
  SciTegic01182412303D

 69 72  0  0  0  0            999 V2000
   -0.3116    4.8626   -2.7791 C   0  0  0  0  0  4
    0.2950    5.8940   -3.4372 O   0  0  0  0  0  2
    1.6579    6.0173   -3.2788 C   0  0  0  0  0  4
    2.3575    4.7903   -3.7404 C   0  0  0  0  0  4
    2.0791    4.5056   -5.1816 C   0  0  0  0  0  4
    0.9026    4.8735   -5.7731 N   0  0  0  0  0  3
    0.8955    4.5207   -7.0307 N   0  0  0  0  0  3
   -0.2011    4.7456   -8.0033 C   0  0  0  0  0  4
   -1.5183    4.7668   -7.3596 C   0  0  0  0  0  4
   -1.7407    4.0369   -6.2242 C   0  0  0  0  0  4
   -2.9955    4.0654   -5.6242 C   0  0  0  0  0  4
   -4.0053    4.8277   -6.1763 C   0  0  0  0  0  4
   -3.7970    5.5686   -7.3192 C   0  0  0  0  0  4
   -4.8007    6.3372   -7.8832 O   0  0  0  0  0  2
   -6.0910    6.4353   -7.3607 C   0  0  0  0  0  4
   -2.5345    5.5144   -7.8878 C   0  0  0  0  0  4
    2.0546    3.9192   -7.2914 C   0  0  0  0  0  4
    2.8439    3.8888   -6.1295 C   0  0  0  0  0  4
    4.1764    3.3160   -6.0333 C   0  0  0  0  0  4
    4.8580    3.3738   -7.1135 O   0  0  0  0  0  2
    4.8043    2.7242   -4.9474 N   0  0  0  0  0  3
    4.2635    2.5224   -3.6379 C   0  0  0  0  0  4
    2.8685    2.5614   -3.5220 C   0  0  0  0  0  4
    2.2226    2.3636   -2.3256 C   0  0  0  0  0  4
    3.0000    2.1146   -1.1871 C   0  0  0  0  0  4
    2.3704    1.8862    0.1311 C   0  0  0  0  0  4
    4.3685    2.0715   -1.2756 C   0  0  0  0  0  4
    5.3398    1.7710    0.1206 S   0  0  0  0  0  6
    4.7037    2.4129    1.3442 O   0  0  0  0  0  2
    6.6479    2.5325   -0.0670 O   0  0  0  0  0  2
    5.6737    0.1071    0.3946 N   0  0  0  0  0  3
    4.4672   -0.5408    0.8160 C   0  0  0  0  0  4
    4.7153   -1.6160    1.8512 C   0  0  0  0  0  4
    5.9499   -2.2379    1.6481 O   0  0  0  0  0  2
    6.9250   -1.3060    1.9928 C   0  0  0  0  0  4
    6.7670    0.0041    1.3061 C   0  0  0  0  0  4
    5.0013    2.2759   -2.5057 C   0  0  0  0  0  4
   -1.3618    4.8778   -2.9833 H   0  0  0  0  0  1
   -0.1514    4.9679   -1.7264 H   0  0  0  0  0  1
    0.1031    3.9341   -3.1119 H   0  0  0  0  0  1
    1.8774    6.1777   -2.2439 H   0  0  0  0  0  1
    2.0030    6.8535   -3.8503 H   0  0  0  0  0  1
    2.0262    3.9600   -3.1524 H   0  0  0  0  0  1
    3.4113    4.9219   -3.6099 H   0  0  0  0  0  1
   -0.1849    3.9590   -8.7285 H   0  0  0  0  0  1
   -0.0413    5.6842   -8.4915 H   0  0  0  0  0  1
   -0.9546    3.4477   -5.8003 H   0  0  0  0  0  1
   -3.1777    3.4973   -4.7360 H   0  0  0  0  0  1
   -4.9673    4.8435   -5.7082 H   0  0  0  0  0  1
   -6.6761    7.0872   -7.9752 H   0  0  0  0  0  1
   -6.0444    6.8286   -6.3667 H   0  0  0  0  0  1
   -6.5419    5.4651   -7.3396 H   0  0  0  0  0  1
   -2.3470    6.0805   -8.7762 H   0  0  0  0  0  1
    2.3413    3.5196   -8.2417 H   0  0  0  0  0  1
    5.7675    2.3930   -5.1007 H   0  0  0  0  0  1
    2.2839    2.7522   -4.3976 H   0  0  0  0  0  1
    1.1549    2.3987   -2.2651 H   0  0  0  0  0  1
    2.1797    0.8411    0.2590 H   0  0  0  0  0  1
    1.4481    2.4261    0.1841 H   0  0  0  0  0  1
    3.0276    2.2261    0.9040 H   0  0  0  0  0  1
    4.0020   -0.9878   -0.0377 H   0  0  0  0  0  1
    3.8120    0.1940    1.2352 H   0  0  0  0  0  1
    3.9397   -2.3500    1.7849 H   0  0  0  0  0  1
    4.7041   -1.1723    2.8248 H   0  0  0  0  0  1
    7.8828   -1.7085    1.7370 H   0  0  0  0  0  1
    6.8776   -1.1420    3.0491 H   0  0  0  0  0  1
    7.6669    0.1979    0.7606 H   0  0  0  0  0  1
    6.6374    0.7540    2.0583 H   0  0  0  0  0  1
    6.0690    2.2400   -2.5655 H   0  0  0  0  0  1
  1  2  1  0
  1 38  1  0
  1 39  1  0
  1 40  1  0
  2  3  1  0
  3  4  1  0
  3 41  1  0
  3 42  1  0
  4  5  1  0
  4 43  1  0
  4 44  1  0
  5  6  2  0
  6  7  1  0
  7 17  1  0
  7  8  1  0
  8  9  1  0
  8 45  1  0
  8 46  1  0
  9 10  2  0
 10 11  1  0
 10 47  1  0
 11 12  2  0
 11 48  1  0
 12 13  1  0
 12 49  1  0
 13 16  2  0
 13 14  1  0
 14 15  1  0
 15 50  1  0
 15 51  1  0
 15 52  1  0
 16  9  1  0
 16 53  1  0
 17 18  2  0
 17 54  1  0
 18 19  1  0
 18  5  1  0
 19 21  1  0
 19 20  2  0
 21 22  1  0
 21 55  1  0
 22 23  2  0
 23 24  1  0
 23 56  1  0
 24 25  2  0
 24 57  1  0
 25 27  1  0
 25 26  1  0
 26 58  1  0
 26 59  1  0
 26 60  1  0
 27 37  2  0
 27 28  1  0
 28 31  1  0
 28 30  2  0
 28 29  2  0
 31 32  1  0
 32 33  1  0
 32 61  1  0
 32 62  1  0
 33 34  1  0
 33 63  1  0
 33 64  1  0
 34 35  1  0
 35 36  1  0
 35 65  1  0
 35 66  1  0
 36 31  1  0
 36 67  1  0
 36 68  1  0
 37 22  1  0
 37 69  1  0
M  END
> <Name>
_AT19

> <activity>
6.409

> <prediction>
7.11972

$$$$
_AT20
  SciTegic01182412303D

 67 70  0  0  0  0            999 V2000
   -5.2824   -7.7914    5.6446 C   0  0  0  0  0  4
   -4.6350   -6.7309    4.8351 C   0  0  0  0  0  4
   -3.3234   -6.4133    5.0456 C   0  0  0  0  0  4
   -2.7069   -5.4281    4.3041 C   0  0  0  0  0  4
   -3.4211   -4.7598    3.3443 C   0  0  0  0  0  4
   -2.7874   -3.7060    2.5681 C   0  0  0  0  0  4
   -3.1103   -3.3822    1.2831 N   0  0  0  0  0  3
   -2.3634   -2.3736    0.9022 N   0  0  0  0  0  3
   -2.4357   -1.7581   -0.4112 C   0  0  0  0  0  4
   -3.4754   -2.4900   -1.2235 C   0  0  0  0  0  4
   -2.8043   -0.2767   -0.2782 C   0  0  0  0  0  4
   -1.5413   -1.9995    1.8870 C   0  0  0  0  0  4
   -1.8060   -2.8464    2.9568 C   0  0  0  0  0  4
   -1.1495   -2.8001    4.2687 C   0  0  0  0  0  4
   -1.7398   -3.1625    5.3090 O   0  0  0  0  0  2
    0.1912   -2.3335    4.3592 N   0  0  0  0  0  3
    0.8074   -2.3157    5.6660 C   0  0  0  0  0  4
    0.8965   -1.8950    3.1896 C   0  0  0  0  0  4
    0.4786   -2.2761    1.9358 C   0  0  0  0  0  4
    1.2035   -1.8389    0.8315 C   0  0  0  0  0  4
    2.3291   -1.0341    0.9765 C   0  0  0  0  0  4
    3.0538   -0.6057   -0.2290 C   0  0  0  0  0  4
    2.7425   -0.6555    2.2364 C   0  0  0  0  0  4
    4.1610    0.3344    2.4753 S   0  0  0  0  0  6
    3.9653    1.6296    1.6916 O   0  0  0  0  0  2
    4.2865    0.7935    3.9183 O   0  0  0  0  0  2
    5.5784   -0.3762    1.9027 N   0  0  0  0  0  3
    5.9563   -0.1166    0.5626 C   0  0  0  0  0  4
    7.3312   -0.7692    0.3610 C   0  0  0  0  0  4
    7.4578   -1.8889    1.1837 O   0  0  0  0  0  2
    7.6286   -1.5088    2.5211 C   0  0  0  0  0  4
    6.6844   -0.3328    2.8370 C   0  0  0  0  0  4
    2.0009   -1.1053    3.3143 C   0  0  0  0  0  4
   -4.7505   -5.0995    3.1474 C   0  0  0  0  0  4
   -5.3895   -6.0758    3.8711 C   0  0  0  0  0  4
   -5.7146   -7.3569    6.5217 H   0  0  0  0  0  1
   -4.5512   -8.5186    5.9300 H   0  0  0  0  0  1
   -6.0485   -8.2640    5.0661 H   0  0  0  0  0  1
   -2.7672   -6.9359    5.7956 H   0  0  0  0  0  1
   -1.6788   -5.1872    4.4767 H   0  0  0  0  0  1
   -1.4851   -1.8392   -0.8956 H   0  0  0  0  0  1
   -3.5429   -2.0496   -2.1963 H   0  0  0  0  0  1
   -4.4243   -2.4206   -0.7339 H   0  0  0  0  0  1
   -3.1963   -3.5188   -1.3162 H   0  0  0  0  0  1
   -2.8549    0.1670   -1.2505 H   0  0  0  0  0  1
   -2.0601    0.2251    0.3045 H   0  0  0  0  0  1
   -3.7551   -0.1876    0.2045 H   0  0  0  0  0  1
   -0.8232   -1.2067    1.8578 H   0  0  0  0  0  1
    1.8075   -1.9443    5.5836 H   0  0  0  0  0  1
    0.8272   -3.3085    6.0645 H   0  0  0  0  0  1
    0.2437   -1.6810    6.3174 H   0  0  0  0  0  1
   -0.3853   -2.8953    1.8122 H   0  0  0  0  0  1
    0.8889   -2.1278   -0.1495 H   0  0  0  0  0  1
    2.6487    0.3209   -0.5784 H   0  0  0  0  0  1
    2.9504   -1.3501   -0.9907 H   0  0  0  0  0  1
    4.0899   -0.4764    0.0049 H   0  0  0  0  0  1
    6.0200    0.9382    0.3945 H   0  0  0  0  0  1
    5.2429   -0.5427   -0.1115 H   0  0  0  0  0  1
    8.0970   -0.0628    0.6050 H   0  0  0  0  0  1
    7.4342   -1.0681   -0.6612 H   0  0  0  0  0  1
    8.6425   -1.2068    2.6809 H   0  0  0  0  0  1
    7.3976   -2.3351    3.1605 H   0  0  0  0  0  1
    7.2111    0.5927    2.7319 H   0  0  0  0  0  1
    6.3168   -0.4224    3.8378 H   0  0  0  0  0  1
    2.3104   -0.8184    4.2975 H   0  0  0  0  0  1
   -5.3047   -4.5763    2.3963 H   0  0  0  0  0  1
   -6.4173   -6.3196    3.7007 H   0  0  0  0  0  1
  1  2  1  0
  1 36  1  0
  1 37  1  0
  1 38  1  0
  2  3  2  0
  3  4  1  0
  3 39  1  0
  4  5  2  0
  4 40  1  0
  5 34  1  0
  5  6  1  0
  6  7  2  0
  7  8  1  0
  8 12  1  0
  8  9  1  0
  9 11  1  0
  9 10  1  0
  9 41  1  0
 10 42  1  0
 10 43  1  0
 10 44  1  0
 11 45  1  0
 11 46  1  0
 11 47  1  0
 12 13  2  0
 12 48  1  0
 13 14  1  0
 13  6  1  0
 14 16  1  0
 14 15  2  0
 16 18  1  0
 16 17  1  0
 17 49  1  0
 17 50  1  0
 17 51  1  0
 18 19  2  0
 19 20  1  0
 19 52  1  0
 20 21  2  0
 20 53  1  0
 21 23  1  0
 21 22  1  0
 22 54  1  0
 22 55  1  0
 22 56  1  0
 23 33  2  0
 23 24  1  0
 24 27  1  0
 24 26  2  0
 24 25  2  0
 27 28  1  0
 28 29  1  0
 28 57  1  0
 28 58  1  0
 29 30  1  0
 29 59  1  0
 29 60  1  0
 30 31  1  0
 31 32  1  0
 31 61  1  0
 31 62  1  0
 32 27  1  0
 32 63  1  0
 32 64  1  0
 33 18  1  0
 33 65  1  0
 34 35  2  0
 34 66  1  0
 35  2  1  0
 35 67  1  0
M  END
> <Name>
_AT20

> <activity>
6.31

> <prediction>
6.0933630952381

$$$$
_AT21
  SciTegic01182412303D

 55 58  0  0  0  0            999 V2000
   11.2986    7.6338    1.8644 C   0  0  0  0  0  4
   10.7813    6.4053    2.5079 C   0  0  0  0  0  4
    9.6930    5.8208    1.8785 C   0  0  0  0  0  4
    9.1520    4.6558    2.4136 C   0  0  0  0  0  4
    9.6811    4.0731    3.5594 C   0  0  0  0  0  4
    9.1060    2.8735    4.0513 N   0  0  0  0  0  3
    8.3126    1.9486    3.3929 C   0  0  0  0  0  4
    7.9182    0.9511    4.1081 O   0  0  0  0  0  2
    7.8982    1.9961    2.0038 C   0  0  0  0  0  4
    8.7059    2.6148    1.0125 C   0  0  0  0  0  4
    8.0547    2.4938   -0.1478 N   0  0  0  0  0  3
    6.9217    1.8583    0.0384 N   0  0  0  0  0  3
    5.9784    1.5590   -0.9785 C   0  0  0  0  0  4
    6.2081    1.9365   -2.2838 C   0  0  0  0  0  4
    5.2744    1.6192   -3.2408 C   0  0  0  0  0  4
    4.1247    0.9362   -2.9151 C   0  0  0  0  0  4
    3.8604    0.5405   -1.6100 C   0  0  0  0  0  4
    4.8120    0.8729   -0.6809 C   0  0  0  0  0  4
    6.7891    1.5310    1.3724 C   0  0  0  0  0  4
    5.6129    0.8296    1.8950 C   0  0  0  0  0  4
    4.4181    1.3859    1.5531 F   0  0  0  0  0  1
    5.6261   -0.5180    1.4104 F   0  0  0  0  0  1
    5.6987    0.6373    3.2518 F   0  0  0  0  0  1
   10.7366    4.6865    4.1253 C   0  0  0  0  0  4
   11.3311    5.8756    3.6267 C   0  0  0  0  0  4
   12.6844    6.6053    4.4168 S   0  0  0  0  0  6
   13.7984    5.5866    4.6574 O   0  0  0  0  0  2
   12.2406    6.9912    5.8232 O   0  0  0  0  0  2
   13.2792    8.0218    3.7061 N   0  0  0  0  0  3
   13.9513    7.9035    2.4731 C   0  0  0  0  0  4
   13.5453    8.9170    1.4583 C   0  0  0  0  0  4
   13.6178   10.1816    2.0609 O   0  0  0  0  0  2
   12.5337   10.2469    2.9307 C   0  0  0  0  0  4
   12.5754    9.2043    3.9967 C   0  0  0  0  0  4
   10.7985    8.4875    2.2718 H   0  0  0  0  0  1
   11.1214    7.5860    0.8102 H   0  0  0  0  0  1
   12.3499    7.7160    2.0459 H   0  0  0  0  0  1
    9.2758    6.2585    0.9958 H   0  0  0  0  0  1
    8.3119    4.1992    1.9334 H   0  0  0  0  0  1
    9.3070    2.6597    5.0386 H   0  0  0  0  0  1
    9.6538    3.0870    1.1656 H   0  0  0  0  0  1
    7.0986    2.4678   -2.5477 H   0  0  0  0  0  1
    5.4441    1.9081   -4.2570 H   0  0  0  0  0  1
    3.4183    0.7048   -3.6847 H   0  0  0  0  0  1
    2.9697    0.0095   -1.3464 H   0  0  0  0  0  1
    4.6438    0.5849    0.3358 H   0  0  0  0  0  1
   11.1549    4.2500    5.0081 H   0  0  0  0  0  1
   13.7528    6.9306    2.0743 H   0  0  0  0  0  1
   15.0011    8.0084    2.6514 H   0  0  0  0  0  1
   12.5439    8.7257    1.1334 H   0  0  0  0  0  1
   14.2068    8.8759    0.6182 H   0  0  0  0  0  1
   11.6347   10.1194    2.3646 H   0  0  0  0  0  1
   12.5283   11.2102    3.3965 H   0  0  0  0  0  1
   11.5654    8.9318    4.2214 H   0  0  0  0  0  1
   13.0269    9.6444    4.8612 H   0  0  0  0  0  1
  1  2  1  0
  1 35  1  0
  1 36  1  0
  1 37  1  0
  2  3  2  0
  3  4  1  0
  3 38  1  0
  4  5  2  0
  4 39  1  0
  5 24  1  0
  5  6  1  0
  6  7  1  0
  6 40  1  0
  7  9  1  0
  7  8  2  0
  9 10  1  0
 10 11  2  0
 10 41  1  0
 11 12  1  0
 12 19  1  0
 12 13  1  0
 13 14  2  0
 14 15  1  0
 14 42  1  0
 15 16  2  0
 15 43  1  0
 16 17  1  0
 16 44  1  0
 17 18  2  0
 17 45  1  0
 18 13  1  0
 18 46  1  0
 19 20  1  0
 19  9  2  0
 20 23  1  0
 20 22  1  0
 20 21  1  0
 24 25  2  0
 24 47  1  0
 25 26  1  0
 25  2  1  0
 26 29  1  0
 26 28  2  0
 26 27  2  0
 29 30  1  0
 30 31  1  0
 30 48  1  0
 30 49  1  0
 31 32  1  0
 31 50  1  0
 31 51  1  0
 32 33  1  0
 33 34  1  0
 33 52  1  0
 33 53  1  0
 34 29  1  0
 34 54  1  0
 34 55  1  0
M  END
> <Name>
_AT21

> <activity>
6.002

> <prediction>
6.09207380952381

$$$$
_AT22
  SciTegic01182412303D

 58 62  0  0  0  0            999 V2000
    7.2713    1.3907   -0.1057 O   0  0  0  0  0  2
    7.1423    2.3207    0.7750 C   0  0  0  0  0  4
    8.0662    3.3649    0.7942 N   0  0  0  0  0  3
    8.0738    4.4515    1.7020 C   0  0  0  0  0  4
    7.3725    4.3207    2.9149 C   0  0  0  0  0  4
    7.3565    5.3296    3.8434 C   0  0  0  0  0  4
    8.0279    6.5125    3.6236 C   0  0  0  0  0  4
    8.7184    6.6690    2.4553 C   0  0  0  0  0  4
    9.5868    8.1513    2.1389 S   0  0  0  0  0  6
    8.5791    9.2804    2.2249 O   0  0  0  0  0  2
   10.1950    8.1759    0.7853 O   0  0  0  0  0  2
   10.7830    8.4645    3.3288 N   0  0  0  0  0  3
   12.0692    7.9222    3.0391 C   0  0  0  0  0  4
   12.9676    8.2244    4.2402 C   0  0  0  0  0  4
   12.4977    7.6772    5.4128 O   0  0  0  0  0  2
   11.2154    7.1390    5.2669 C   0  0  0  0  0  4
   10.3362    8.1812    4.6612 C   0  0  0  0  0  4
    8.7297    5.6485    1.5259 C   0  0  0  0  0  4
    6.0003    2.1545    1.6665 C   0  0  0  0  0  4
    5.2644    3.1736    2.2732 C   0  0  0  0  0  4
    4.3370    2.6367    3.0793 N   0  0  0  0  0  3
    3.3920    3.3965    3.8772 C   0  0  0  0  0  4
    2.1633    2.8836    4.1588 C   0  0  0  0  0  4
    1.2239    3.5755    4.9179 C   0  0  0  0  0  4
    1.5912    4.8311    5.3869 C   0  0  0  0  0  4
    2.8428    5.3653    5.1058 C   0  0  0  0  0  4
    3.7489    4.6529    4.3513 C   0  0  0  0  0  4
    4.4517    1.3399    3.0090 N   0  0  0  0  0  3
    5.4661    1.0021    2.1462 C   0  0  0  0  0  4
    5.8206   -0.3957    1.8449 C   0  0  0  0  0  4
    5.6360   -1.3994    2.7579 C   0  0  0  0  0  4
    5.9380   -2.7273    2.4294 C   0  0  0  0  0  4
    6.4234   -2.9882    1.1670 C   0  0  0  0  0  4
    6.6046   -2.0040    0.2711 N   0  0  0  0  0  3
    6.3074   -0.7179    0.6023 C   0  0  0  0  0  4
    8.8112    3.3438    0.0832 H   0  0  0  0  0  1
    6.8404    3.4147    3.1170 H   0  0  0  0  0  1
    6.8128    5.1959    4.7552 H   0  0  0  0  0  1
    8.0089    7.2940    4.3542 H   0  0  0  0  0  1
   12.4695    8.3782    2.1578 H   0  0  0  0  0  1
   11.9968    6.8648    2.8922 H   0  0  0  0  0  1
   13.0312    9.2858    4.3603 H   0  0  0  0  0  1
   13.9424    7.8285    4.0454 H   0  0  0  0  0  1
   10.8317    6.8536    6.2241 H   0  0  0  0  0  1
   11.2535    6.2817    4.6278 H   0  0  0  0  0  1
   10.3816    9.0732    5.2504 H   0  0  0  0  0  1
    9.3278    7.8244    4.6315 H   0  0  0  0  0  1
    9.2783    5.7961    0.6192 H   0  0  0  0  0  1
    5.4169    4.2214    2.1190 H   0  0  0  0  0  1
    1.9104    1.9141    3.7832 H   0  0  0  0  0  1
    0.2615    3.1591    5.1309 H   0  0  0  0  0  1
    0.8983    5.3962    5.9745 H   0  0  0  0  0  1
    3.1040    6.3342    5.4771 H   0  0  0  0  0  1
    4.7136    5.0613    4.1334 H   0  0  0  0  0  1
    5.2575   -1.1672    3.7314 H   0  0  0  0  0  1
    5.7957   -3.5159    3.1384 H   0  0  0  0  0  1
    6.6609   -3.9953    0.8945 H   0  0  0  0  0  1
    6.4560    0.0575   -0.1200 H   0  0  0  0  0  1
  1  2  2  0
  2 19  1  0
  2  3  1  0
  3  4  1  0
  3 36  1  0
  4  5  2  0
  5  6  1  0
  5 37  1  0
  6  7  2  0
  6 38  1  0
  7  8  1  0
  7 39  1  0
  8 18  2  0
  8  9  1  0
  9 12  1  0
  9 11  2  0
  9 10  2  0
 12 13  1  0
 13 14  1  0
 13 40  1  0
 13 41  1  0
 14 15  1  0
 14 42  1  0
 14 43  1  0
 15 16  1  0
 16 17  1  0
 16 44  1  0
 16 45  1  0
 17 12  1  0
 17 46  1  0
 17 47  1  0
 18  4  1  0
 18 48  1  0
 19 20  2  0
 20 21  1  0
 20 49  1  0
 21 28  1  0
 21 22  1  0
 22 23  2  0
 23 24  1  0
 23 50  1  0
 24 25  2  0
 24 51  1  0
 25 26  1  0
 25 52  1  0
 26 27  2  0
 26 53  1  0
 27 22  1  0
 27 54  1  0
 28 29  2  0
 29 30  1  0
 29 19  1  0
 30 31  2  0
 31 32  1  0
 31 55  1  0
 32 33  2  0
 32 56  1  0
 33 34  1  0
 33 57  1  0
 34 35  2  0
 35 30  1  0
 35 58  1  0
M  END
> <Name>
_AT22

> <activity>
5.886

> <prediction>
5.89734880952381

$$$$
_AT23
  SciTegic01182412303D

 65 68  0  0  0  0            999 V2000
    3.9648   -1.3088   -1.9171 C   0  0  0  0  0  4
    4.8028   -0.0801   -1.8539 C   0  0  0  0  0  4
    6.1132   -0.0784   -2.2734 C   0  0  0  0  0  4
    6.8831    1.0872   -2.2052 C   0  0  0  0  0  4
    6.3399    2.2501   -1.7165 C   0  0  0  0  0  4
    7.0563    3.5086   -1.5902 C   0  0  0  0  0  4
    8.3629    3.6869   -1.9444 N   0  0  0  0  0  3
    8.7534    4.9104   -1.7511 N   0  0  0  0  0  3
   10.0730    5.4810   -2.0091 C   0  0  0  0  0  4
   10.3932    5.3510   -3.4740 C   0  0  0  0  0  4
   10.1109    6.9481   -1.6268 C   0  0  0  0  0  4
    7.6722    5.5757   -1.2503 C   0  0  0  0  0  4
    6.5918    4.7171   -1.1396 C   0  0  0  0  0  4
    5.2486    5.0381   -0.6570 C   0  0  0  0  0  4
    4.8453    4.2644    0.5155 N   0  0  0  0  0  3
    5.8251    3.8046    1.4562 C   0  0  0  0  0  4
    6.9580    4.5620    1.6088 C   0  0  0  0  0  4
    7.8978    4.1164    2.5145 C   0  0  0  0  0  4
    7.7383    2.9578    3.2562 C   0  0  0  0  0  4
    8.7777    2.5417    4.2021 C   0  0  0  0  0  4
    6.5970    2.2013    3.0979 C   0  0  0  0  0  4
    6.3859    0.7534    4.0171 S   0  0  0  0  0  6
    6.9787    0.8618    5.3998 O   0  0  0  0  0  2
    4.9131    0.5050    4.2045 O   0  0  0  0  0  2
    7.0212   -0.6359    3.1893 N   0  0  0  0  0  3
    6.4867   -0.5966    1.8402 C   0  0  0  0  0  4
    5.2570   -1.4931    1.7553 C   0  0  0  0  0  4
    5.5776   -2.8350    1.9115 O   0  0  0  0  0  2
    6.6026   -3.0072    2.8139 C   0  0  0  0  0  4
    6.5919   -1.8597    3.7922 C   0  0  0  0  0  4
    5.6417    2.6479    2.1819 C   0  0  0  0  0  4
    5.0088    2.2094   -1.3012 C   0  0  0  0  0  4
    4.2332    1.0723   -1.3600 C   0  0  0  0  0  4
    4.0622   -1.8544   -1.0018 H   0  0  0  0  0  1
    4.2893   -1.9203   -2.7330 H   0  0  0  0  0  1
    2.9406   -1.0350   -2.0619 H   0  0  0  0  0  1
    6.5479   -0.9783   -2.6557 H   0  0  0  0  0  1
    7.9007    1.0729   -2.5356 H   0  0  0  0  0  1
   10.8029    4.9491   -1.4354 H   0  0  0  0  0  1
   11.3596    5.7683   -3.6663 H   0  0  0  0  0  1
    9.6578    5.8753   -4.0478 H   0  0  0  0  0  1
   10.3899    4.3171   -3.7495 H   0  0  0  0  0  1
   11.0855    7.3431   -1.8244 H   0  0  0  0  0  1
    9.8889    7.0511   -0.5852 H   0  0  0  0  0  1
    9.3852    7.4852   -2.2010 H   0  0  0  0  0  1
    7.6611    6.6115   -0.9819 H   0  0  0  0  0  1
    4.5513    4.8450   -1.4453 H   0  0  0  0  0  1
    5.2204    6.0769   -0.4023 H   0  0  0  0  0  1
    3.8499    4.0478    0.6672 H   0  0  0  0  0  1
    7.1068    5.4614    1.0485 H   0  0  0  0  0  1
    8.7899    4.6914    2.6502 H   0  0  0  0  0  1
    8.5784    2.9699    5.1622 H   0  0  0  0  0  1
    9.7322    2.8766    3.8533 H   0  0  0  0  0  1
    8.7813    1.4746    4.2813 H   0  0  0  0  0  1
    7.2291   -0.9433    1.1521 H   0  0  0  0  0  1
    6.2134    0.4081    1.5939 H   0  0  0  0  0  1
    4.7963   -1.3574    0.7991 H   0  0  0  0  0  1
    4.5700   -1.2105    2.5254 H   0  0  0  0  0  1
    7.5381   -3.0277    2.2949 H   0  0  0  0  0  1
    6.4665   -3.9288    3.3401 H   0  0  0  0  0  1
    7.2476   -2.0928    4.6049 H   0  0  0  0  0  1
    5.5963   -1.7313    4.1627 H   0  0  0  0  0  1
    4.7468    2.0786    2.0406 H   0  0  0  0  0  1
    4.5683    3.1060   -0.9178 H   0  0  0  0  0  1
    3.2152    1.0843   -1.0307 H   0  0  0  0  0  1
  1  2  1  0
  1 34  1  0
  1 35  1  0
  1 36  1  0
  2  3  2  0
  3  4  1  0
  3 37  1  0
  4  5  2  0
  4 38  1  0
  5 32  1  0
  5  6  1  0
  6  7  2  0
  7  8  1  0
  8 12  1  0
  8  9  1  0
  9 11  1  0
  9 10  1  0
  9 39  1  0
 10 40  1  0
 10 41  1  0
 10 42  1  0
 11 43  1  0
 11 44  1  0
 11 45  1  0
 12 13  2  0
 12 46  1  0
 13 14  1  0
 13  6  1  0
 14 15  1  0
 14 47  1  0
 14 48  1  0
 15 16  1  0
 15 49  1  0
 16 17  2  0
 17 18  1  0
 17 50  1  0
 18 19  2  0
 18 51  1  0
 19 21  1  0
 19 20  1  0
 20 52  1  0
 20 53  1  0
 20 54  1  0
 21 31  2  0
 21 22  1  0
 22 25  1  0
 22 24  2  0
 22 23  2  0
 25 26  1  0
 26 27  1  0
 26 55  1  0
 26 56  1  0
 27 28  1  0
 27 57  1  0
 27 58  1  0
 28 29  1  0
 29 30  1  0
 29 59  1  0
 29 60  1  0
 30 25  1  0
 30 61  1  0
 30 62  1  0
 31 16  1  0
 31 63  1  0
 32 33  2  0
 32 64  1  0
 33  2  1  0
 33 65  1  0
M  END
> <Name>
_AT23

> <activity>
5.69

> <prediction>
6.14546666666667

$$$$
_AT24
  SciTegic01182412303D

 69 72  0  0  0  0            999 V2000
    3.8015  -13.0065   -2.3862 C   0  0  0  0  0  4
    3.4978  -11.6659   -2.0665 O   0  0  0  0  0  2
    3.5937  -11.2686   -0.7370 C   0  0  0  0  0  4
    4.4964  -11.8886    0.0785 C   0  0  0  0  0  4
    4.6103  -11.5125    1.3995 C   0  0  0  0  0  4
    3.7955  -10.4998    1.8781 C   0  0  0  0  0  4
    2.8757   -9.8543    1.0843 C   0  0  0  0  0  4
    2.0438   -8.7936    1.6410 C   0  0  0  0  0  4
    2.2182   -7.5092    0.9768 N   0  0  0  0  0  3
    2.5597   -7.3689   -0.3176 C   0  0  0  0  0  4
    2.6411   -6.0255   -0.6388 C   0  0  0  0  0  4
    2.9746   -5.3619   -1.9263 C   0  0  0  0  0  4
    1.9217   -4.5254   -2.4124 N   0  0  0  0  0  3
    0.7312   -4.4312   -1.6398 C   0  0  0  0  0  4
    0.2844   -5.4719   -0.8403 C   0  0  0  0  0  4
   -0.8633   -5.3851   -0.0844 C   0  0  0  0  0  4
   -1.6217   -4.2363   -0.0982 C   0  0  0  0  0  4
   -2.8667   -4.0871    0.6981 C   0  0  0  0  0  4
   -1.2012   -3.1722   -0.8904 C   0  0  0  0  0  4
   -2.1687   -1.7130   -0.8948 S   0  0  0  0  0  6
   -2.7539   -1.3968    0.4345 O   0  0  0  0  0  2
   -1.2372   -0.5602   -1.2433 O   0  0  0  0  0  2
   -3.3647   -1.7589   -2.1250 N   0  0  0  0  0  3
   -2.8163   -2.1305   -3.4061 C   0  0  0  0  0  4
   -3.9149   -2.3734   -4.3886 C   0  0  0  0  0  4
   -5.1336   -1.9873   -3.8539 O   0  0  0  0  0  2
   -5.0850   -0.6727   -3.3733 C   0  0  0  0  0  4
   -4.1750   -0.5822   -2.1576 C   0  0  0  0  0  4
   -0.0465   -3.2896   -1.6368 C   0  0  0  0  0  4
    2.3319   -5.3586    0.5272 C   0  0  0  0  0  4
    2.2872   -3.8823    0.7055 C   0  0  0  0  0  4
    3.6298   -3.3098    1.0559 C   0  0  0  0  0  4
    1.2761   -3.4803    1.7504 C   0  0  0  0  0  4
    2.0885   -6.2978    1.4570 N   0  0  0  0  0  3
    2.7788  -10.2460   -0.2318 C   0  0  0  0  0  4
    3.6827  -13.1578   -3.4388 H   0  0  0  0  0  1
    3.1398  -13.6585   -1.8552 H   0  0  0  0  0  1
    4.8122  -13.2195   -2.1071 H   0  0  0  0  0  1
    5.1174  -12.6690   -0.3092 H   0  0  0  0  0  1
    5.3157  -11.9942    2.0439 H   0  0  0  0  0  1
    3.8847  -10.2086    2.9038 H   0  0  0  0  0  1
    2.2917   -8.6764    2.6753 H   0  0  0  0  0  1
    1.0182   -9.0850    1.5509 H   0  0  0  0  0  1
    2.7411   -8.1756   -0.9967 H   0  0  0  0  0  1
    3.1753   -6.1171   -2.6573 H   0  0  0  0  0  1
    3.8490   -4.7618   -1.7843 H   0  0  0  0  0  1
    2.0224   -4.0062   -3.2962 H   0  0  0  0  0  1
    0.8533   -6.3776   -0.8094 H   0  0  0  0  0  1
   -1.1675   -6.2158    0.5174 H   0  0  0  0  0  1
   -2.6281   -3.6872    1.6615 H   0  0  0  0  0  1
   -3.3325   -5.0434    0.8143 H   0  0  0  0  0  1
   -3.5363   -3.4233    0.1922 H   0  0  0  0  0  1
   -2.2368   -3.0233   -3.2965 H   0  0  0  0  0  1
   -2.1901   -1.3405   -3.7647 H   0  0  0  0  0  1
   -3.9493   -3.4156   -4.6289 H   0  0  0  0  0  1
   -3.7247   -1.8086   -5.2773 H   0  0  0  0  0  1
   -6.0713   -0.3617   -3.0986 H   0  0  0  0  0  1
   -4.7098   -0.0304   -4.1424 H   0  0  0  0  0  1
   -4.7642   -0.5221   -1.2664 H   0  0  0  0  0  1
   -3.5530    0.2852   -2.2332 H   0  0  0  0  0  1
    0.2597   -2.4602   -2.2395 H   0  0  0  0  0  1
    1.9836   -3.4561   -0.2278 H   0  0  0  0  0  1
    3.5458   -2.2496    1.1732 H   0  0  0  0  0  1
    4.3258   -3.5280    0.2731 H   0  0  0  0  0  1
    3.9747   -3.7438    1.9711 H   0  0  0  0  0  1
    1.2716   -2.4151    1.8513 H   0  0  0  0  0  1
    1.5354   -3.9263    2.6879 H   0  0  0  0  0  1
    0.3040   -3.8145    1.4533 H   0  0  0  0  0  1
    2.0735   -9.7644   -0.8765 H   0  0  0  0  0  1
  1  2  1  0
  1 36  1  0
  1 37  1  0
  1 38  1  0
  2  3  1  0
  3  4  2  0
  4  5  1  0
  4 39  1  0
  5  6  2  0
  5 40  1  0
  6  7  1  0
  6 41  1  0
  7 35  2  0
  7  8  1  0
  8  9  1  0
  8 42  1  0
  8 43  1  0
  9 10  1  0
 10 11  2  0
 10 44  1  0
 11 30  1  0
 11 12  1  0
 12 13  1  0
 12 45  1  0
 12 46  1  0
 13 14  1  0
 13 47  1  0
 14 15  2  0
 15 16  1  0
 15 48  1  0
 16 17  2  0
 16 49  1  0
 17 19  1  0
 17 18  1  0
 18 50  1  0
 18 51  1  0
 18 52  1  0
 19 29  2  0
 19 20  1  0
 20 23  1  0
 20 22  2  0
 20 21  2  0
 23 24  1  0
 24 25  1  0
 24 53  1  0
 24 54  1  0
 25 26  1  0
 25 55  1  0
 25 56  1  0
 26 27  1  0
 27 28  1  0
 27 57  1  0
 27 58  1  0
 28 23  1  0
 28 59  1  0
 28 60  1  0
 29 14  1  0
 29 61  1  0
 30 34  2  0
 30 31  1  0
 31 33  1  0
 31 32  1  0
 31 62  1  0
 32 63  1  0
 32 64  1  0
 32 65  1  0
 33 66  1  0
 33 67  1  0
 33 68  1  0
 34  9  1  0
 35  3  1  0
 35 69  1  0
M  END
> <Name>
_AT24

> <activity>
5.636

> <prediction>
6.49130428571429

$$$$
_AT25
  SciTegic01182412303D

 58 61  0  0  0  0            999 V2000
   -0.9843   -1.7449   -1.0880 C   0  0  0  0  0  4
   -0.8731   -1.1194    0.2660 C   0  0  0  0  0  4
   -1.4444    0.1344    0.5154 C   0  0  0  0  0  4
   -1.3276    0.6808    1.7595 C   0  0  0  0  0  4
   -0.6463    0.0016    2.7790 C   0  0  0  0  0  4
   -0.5658    0.6663    4.0315 N   0  0  0  0  0  3
    0.4503    1.5461    4.4650 C   0  0  0  0  0  4
    0.2864    2.0017    5.6568 O   0  0  0  0  0  2
    1.6055    1.9493    3.6974 C   0  0  0  0  0  4
    2.0289    1.6344    2.4429 C   0  0  0  0  0  4
    1.3558    0.7293    1.4811 C   0  0  0  0  0  4
    3.1985    2.2988    2.2042 N   0  0  0  0  0  3
    3.5027    3.0008    3.2549 N   0  0  0  0  0  3
    4.6848    3.8304    3.3463 C   0  0  0  0  0  4
    4.6827    4.9653    4.1156 C   0  0  0  0  0  4
    5.7992    5.7537    4.2053 C   0  0  0  0  0  4
    6.9570    5.4150    3.5153 C   0  0  0  0  0  4
    6.9634    4.2672    2.7356 C   0  0  0  0  0  4
    5.8293    3.4948    2.6637 C   0  0  0  0  0  4
    2.5732    2.8378    4.2124 C   0  0  0  0  0  4
    2.5699    3.4712    5.5494 C   0  0  0  0  0  4
   -0.0982   -1.2278    2.4943 C   0  0  0  0  0  4
   -0.2048   -1.8104    1.2242 C   0  0  0  0  0  4
    0.4998   -3.3440    0.9370 S   0  0  0  0  0  6
   -0.2898   -4.1245   -0.0797 O   0  0  0  0  0  2
    0.4875   -4.1574    2.1993 O   0  0  0  0  0  2
    2.1305   -3.2704    0.3969 N   0  0  0  0  0  3
    2.9048   -2.3832    1.2792 C   0  0  0  0  0  4
    4.3002   -2.9593    1.4910 C   0  0  0  0  0  4
    4.8222   -3.4534    0.2968 O   0  0  0  0  0  2
    4.0773   -4.5344   -0.1755 C   0  0  0  0  0  4
    2.7411   -4.5812    0.5178 C   0  0  0  0  0  4
   -0.1502   -1.4467   -1.6883 H   0  0  0  0  0  1
   -1.8923   -1.4251   -1.5551 H   0  0  0  0  0  1
   -0.9899   -2.8103   -0.9893 H   0  0  0  0  0  1
   -1.9655    0.6567   -0.2596 H   0  0  0  0  0  1
   -1.7609    1.6385    1.9596 H   0  0  0  0  0  1
   -1.3320    0.4871    4.6962 H   0  0  0  0  0  1
    0.6744    1.2925    0.8783 H   0  0  0  0  0  1
    0.8184   -0.0248    2.0171 H   0  0  0  0  0  1
    2.0888    0.2669    0.8535 H   0  0  0  0  0  1
    3.7983    5.2383    4.6524 H   0  0  0  0  0  1
    5.7797    6.6360    4.8103 H   0  0  0  0  0  1
    7.8300    6.0298    3.5842 H   0  0  0  0  0  1
    7.8433    3.9863    2.1954 H   0  0  0  0  0  1
    5.8374    2.6103    2.0616 H   0  0  0  0  0  1
    2.0497    4.4049    5.5005 H   0  0  0  0  0  1
    3.5777    3.6406    5.8664 H   0  0  0  0  0  1
    2.0799    2.8261    6.2485 H   0  0  0  0  0  1
    0.4247   -1.7544    3.2651 H   0  0  0  0  0  1
    2.4081   -2.2984    2.2231 H   0  0  0  0  0  1
    2.9841   -1.4154    0.8297 H   0  0  0  0  0  1
    4.2460   -3.7545    2.2049 H   0  0  0  0  0  1
    4.9440   -2.1897    1.8625 H   0  0  0  0  0  1
    4.6089   -5.4426    0.0179 H   0  0  0  0  0  1
    3.9261   -4.4271   -1.2294 H   0  0  0  0  0  1
    2.8757   -4.8259    1.5507 H   0  0  0  0  0  1
    2.1170   -5.3171    0.0553 H   0  0  0  0  0  1
  1  2  1  0
  1 33  1  0
  1 34  1  0
  1 35  1  0
  2  3  2  0
  3  4  1  0
  3 36  1  0
  4  5  2  0
  4 37  1  0
  5 22  1  0
  5  6  1  0
  6  7  1  0
  6 38  1  0
  7  9  1  0
  7  8  2  0
  9 10  1  0
 10 12  2  0
 10 11  1  0
 11 39  1  0
 11 40  1  0
 11 41  1  0
 12 13  1  0
 13 20  1  0
 13 14  1  0
 14 15  2  0
 15 16  1  0
 15 42  1  0
 16 17  2  0
 16 43  1  0
 17 18  1  0
 17 44  1  0
 18 19  2  0
 18 45  1  0
 19 14  1  0
 19 46  1  0
 20 21  1  0
 20  9  2  0
 21 47  1  0
 21 48  1  0
 21 49  1  0
 22 23  2  0
 22 50  1  0
 23 24  1  0
 23  2  1  0
 24 27  1  0
 24 26  2  0
 24 25  2  0
 27 28  1  0
 28 29  1  0
 28 51  1  0
 28 52  1  0
 29 30  1  0
 29 53  1  0
 29 54  1  0
 30 31  1  0
 31 32  1  0
 31 55  1  0
 31 56  1  0
 32 27  1  0
 32 57  1  0
 32 58  1  0
M  END
> <Name>
_AT25

> <activity>
5.481

> <prediction>
5.53205428571429

$$$$
_AT26
  SciTegic01182412303D

 61 63  0  0  0  0            999 V2000
   -0.9707   -6.2567   -6.6349 C   0  0  0  0  0  4
   -0.8458   -7.4869   -6.0250 O   0  0  0  0  0  2
   -0.4852   -7.4166   -4.7198 C   0  0  0  0  0  4
   -1.4981   -6.6229   -3.8950 C   0  0  0  0  0  4
   -1.0128   -6.5871   -2.4987 C   0  0  0  0  0  4
   -0.8154   -7.6891   -1.7383 N   0  0  0  0  0  3
   -0.3892   -7.3674   -0.5485 N   0  0  0  0  0  3
   -0.0717   -8.2921    0.5299 C   0  0  0  0  0  4
   -0.9210   -9.5204    0.4417 C   0  0  0  0  0  4
   -0.3571   -7.5782    1.8329 C   0  0  0  0  0  4
   -0.2943   -6.0320   -0.4954 C   0  0  0  0  0  4
   -0.6892   -5.4981   -1.7374 C   0  0  0  0  0  4
   -0.6914   -4.0794   -2.0060 C   0  0  0  0  0  4
   -1.5440   -3.6235   -2.8441 O   0  0  0  0  0  2
    0.1667   -3.1493   -1.4220 N   0  0  0  0  0  3
    1.2018   -3.4104   -0.4781 C   0  0  0  0  0  4
    1.7187   -4.7124   -0.3559 C   0  0  0  0  0  4
    2.7297   -4.9886    0.5325 C   0  0  0  0  0  4
    3.2845   -4.0183    1.3414 C   0  0  0  0  0  4
    4.3529   -4.4516    2.2560 C   0  0  0  0  0  4
    2.8070   -2.7477    1.2472 C   0  0  0  0  0  4
    3.4723   -1.4942    2.2260 S   0  0  0  0  0  6
    3.0704   -1.6579    3.6953 O   0  0  0  0  0  2
    2.7624   -0.1940    1.8433 O   0  0  0  0  0  2
    5.1162   -1.1816    2.0588 N   0  0  0  0  0  3
    5.4816   -0.5714    0.8347 C   0  0  0  0  0  4
    6.9867   -0.5880    0.6770 C   0  0  0  0  0  4
    7.6872   -0.1744    1.7678 O   0  0  0  0  0  2
    6.9893    0.1673    2.8844 C   0  0  0  0  0  4
    5.8036   -0.7081    3.2094 C   0  0  0  0  0  4
    1.7681   -2.4834    0.3282 C   0  0  0  0  0  4
   -1.2560   -6.3928   -7.6571 H   0  0  0  0  0  1
   -0.0346   -5.7404   -6.5915 H   0  0  0  0  0  1
   -1.7186   -5.6823   -6.1293 H   0  0  0  0  0  1
    0.4697   -6.9390   -4.6492 H   0  0  0  0  0  1
   -0.4178   -8.4088   -4.3248 H   0  0  0  0  0  1
   -2.4550   -7.1000   -3.9360 H   0  0  0  0  0  1
   -1.5794   -5.6271   -4.2780 H   0  0  0  0  0  1
    0.9608   -8.5684    0.4796 H   0  0  0  0  0  1
   -0.6714  -10.1849    1.2423 H   0  0  0  0  0  1
   -0.7463  -10.0084   -0.4944 H   0  0  0  0  0  1
   -1.9529   -9.2466    0.5140 H   0  0  0  0  0  1
   -0.1348   -8.2292    2.6525 H   0  0  0  0  0  1
   -1.3897   -7.3000    1.8685 H   0  0  0  0  0  1
    0.2512   -6.7005    1.8994 H   0  0  0  0  0  1
    0.0287   -5.4641    0.3520 H   0  0  0  0  0  1
    0.0388   -2.1667   -1.7031 H   0  0  0  0  0  1
    1.3196   -5.4981   -0.9627 H   0  0  0  0  0  1
    3.0994   -5.9905    0.5993 H   0  0  0  0  0  1
    5.3003   -4.3582    1.7675 H   0  0  0  0  0  1
    4.1933   -5.4729    2.5324 H   0  0  0  0  0  1
    4.3419   -3.8388    3.1330 H   0  0  0  0  0  1
    5.1356    0.4410    0.8264 H   0  0  0  0  0  1
    5.0345   -1.1079    0.0240 H   0  0  0  0  0  1
    7.2409    0.0518   -0.1421 H   0  0  0  0  0  1
    7.2852   -1.5907    0.4523 H   0  0  0  0  0  1
    6.6333    1.1682    2.7560 H   0  0  0  0  0  1
    7.6617    0.1318    3.7159 H   0  0  0  0  0  1
    5.1179   -0.1422    3.8047 H   0  0  0  0  0  1
    6.1491   -1.5523    3.7688 H   0  0  0  0  0  1
    1.4030   -1.4796    0.2652 H   0  0  0  0  0  1
  1  2  1  0
  1 32  1  0
  1 33  1  0
  1 34  1  0
  2  3  1  0
  3  4  1  0
  3 35  1  0
  3 36  1  0
  4  5  1  0
  4 37  1  0
  4 38  1  0
  5  6  2  0
  6  7  1  0
  7 11  1  0
  7  8  1  0
  8 10  1  0
  8  9  1  0
  8 39  1  0
  9 40  1  0
  9 41  1  0
  9 42  1  0
 10 43  1  0
 10 44  1  0
 10 45  1  0
 11 12  2  0
 11 46  1  0
 12 13  1  0
 12  5  1  0
 13 15  1  0
 13 14  2  0
 15 16  1  0
 15 47  1  0
 16 17  2  0
 17 18  1  0
 17 48  1  0
 18 19  2  0
 18 49  1  0
 19 21  1  0
 19 20  1  0
 20 50  1  0
 20 51  1  0
 20 52  1  0
 21 31  2  0
 21 22  1  0
 22 25  1  0
 22 24  2  0
 22 23  2  0
 25 26  1  0
 26 27  1  0
 26 53  1  0
 26 54  1  0
 27 28  1  0
 27 55  1  0
 27 56  1  0
 28 29  1  0
 29 30  1  0
 29 57  1  0
 29 58  1  0
 30 25  1  0
 30 59  1  0
 30 60  1  0
 31 16  1  0
 31 61  1  0
M  END
> <Name>
_AT26

> <activity>
5.466

> <prediction>
5.87974476190476

$$$$
_AT27
  SciTegic01182412303D

 76 80  0  0  0  0            999 V2000
   -8.1993   -3.5143    1.0134 C   0  0  0  0  0  4
   -6.8397   -3.1759    1.1804 O   0  0  0  0  0  2
   -6.1978   -2.1698    0.4715 C   0  0  0  0  0  4
   -6.8611   -1.0441    0.0052 C   0  0  0  0  0  4
   -6.1680   -0.0626   -0.7033 C   0  0  0  0  0  4
   -4.8223   -0.1444   -0.9763 C   0  0  0  0  0  4
   -4.1594   -1.2643   -0.5133 C   0  0  0  0  0  4
   -2.7165   -1.4279   -0.7721 C   0  0  0  0  0  4
   -2.1652   -2.6489   -0.2447 N   0  0  0  0  0  3
   -1.1813   -2.7331    0.6598 C   0  0  0  0  0  4
   -0.9249   -4.0791    0.9259 C   0  0  0  0  0  4
    0.0362   -4.7037    1.7927 C   0  0  0  0  0  4
   -0.2092   -5.8030    2.3213 O   0  0  0  0  0  2
    1.2743   -4.0792    2.0648 N   0  0  0  0  0  3
    2.2554   -4.6962    2.9126 C   0  0  0  0  0  4
    1.6126   -2.8097    1.5020 C   0  0  0  0  0  4
    0.9582   -2.3443    0.3923 C   0  0  0  0  0  4
    1.3044   -1.1093   -0.0916 C   0  0  0  0  0  4
    2.2916   -0.2951    0.4847 C   0  0  0  0  0  4
    2.5301    1.0652   -0.1194 C   0  0  0  0  0  4
    2.9424   -0.7645    1.5878 C   0  0  0  0  0  4
    4.2107    0.0815    2.3893 S   0  0  0  0  0  6
    4.1204   -0.1255    3.8962 O   0  0  0  0  0  2
    3.9809    1.5794    2.1904 O   0  0  0  0  0  2
    5.7508   -0.2757    1.8162 N   0  0  0  0  0  3
    6.3182    0.4682    0.7795 C   0  0  0  0  0  4
    7.8399    0.2459    0.6838 C   0  0  0  0  0  4
    8.1588   -1.0806    0.8364 O   0  0  0  0  0  2
    7.0643   -1.9206    0.6461 C   0  0  0  0  0  4
    6.0200   -1.6799    1.6974 C   0  0  0  0  0  4
    2.5777   -2.0393    2.0812 C   0  0  0  0  0  4
   -1.8019   -4.7836    0.1404 C   0  0  0  0  0  4
   -2.0180   -6.1967    0.0146 C   0  0  0  0  0  4
   -3.2341   -6.7471   -0.3021 C   0  0  0  0  0  4
   -3.3560   -8.1299   -0.4263 C   0  0  0  0  0  4
   -2.3037   -8.9948   -0.2446 C   0  0  0  0  0  4
   -1.0812   -8.4471    0.0747 C   0  0  0  0  0  4
   -0.0041   -9.2857    0.2638 O   0  0  0  0  0  2
   -0.1184  -10.6824    0.1399 C   0  0  0  0  0  4
   -0.9436   -7.0874    0.2004 C   0  0  0  0  0  4
   -2.5314   -3.8561   -0.5502 N   0  0  0  0  0  3
   -4.8421   -2.2424    0.1909 C   0  0  0  0  0  4
   -8.4502   -4.3186    1.6730 H   0  0  0  0  0  1
   -8.3699   -3.8166    0.0013 H   0  0  0  0  0  1
   -8.8087   -2.6644    1.2394 H   0  0  0  0  0  1
   -7.9086   -0.9283    0.1899 H   0  0  0  0  0  1
   -6.7081    0.7934   -1.0504 H   0  0  0  0  0  1
   -4.3134    0.6229   -1.5214 H   0  0  0  0  0  1
   -2.1986   -0.6042   -0.3269 H   0  0  0  0  0  1
   -2.5605   -1.4171   -1.8306 H   0  0  0  0  0  1
   -0.6741   -1.9033    1.1060 H   0  0  0  0  0  1
    3.1133   -4.0611    2.9861 H   0  0  0  0  0  1
    2.5441   -5.6388    2.4966 H   0  0  0  0  0  1
    1.8398   -4.8486    3.8867 H   0  0  0  0  0  1
    0.1983   -2.9283   -0.0834 H   0  0  0  0  0  1
    0.7928   -0.7454   -0.9580 H   0  0  0  0  0  1
    1.8972    1.7836    0.3583 H   0  0  0  0  0  1
    2.3085    1.0345   -1.1658 H   0  0  0  0  0  1
    3.5539    1.3430    0.0204 H   0  0  0  0  0  1
    6.1299    1.5068    0.9549 H   0  0  0  0  0  1
    5.8663    0.1750   -0.1450 H   0  0  0  0  0  1
    8.3242    0.8119    1.4520 H   0  0  0  0  0  1
    8.1817    0.5791   -0.2738 H   0  0  0  0  0  1
    7.3893   -2.9385    0.7007 H   0  0  0  0  0  1
    6.6411   -1.7326   -0.3185 H   0  0  0  0  0  1
    6.3714   -2.0531    2.6366 H   0  0  0  0  0  1
    5.1200   -2.1905    1.4250 H   0  0  0  0  0  1
    3.0813   -2.4157    2.9471 H   0  0  0  0  0  1
   -4.0857   -6.1171   -0.4530 H   0  0  0  0  0  1
   -4.3138   -8.5371   -0.6749 H   0  0  0  0  0  1
   -2.4292  -10.0525   -0.3473 H   0  0  0  0  0  1
    0.8325  -11.1360    0.3268 H   0  0  0  0  0  1
   -0.4420  -10.9273   -0.8502 H   0  0  0  0  0  1
   -0.8326  -11.0461    0.8488 H   0  0  0  0  0  1
    0.0176   -6.6887    0.4493 H   0  0  0  0  0  1
   -4.2964   -3.0959    0.5352 H   0  0  0  0  0  1
  1  2  1  0
  1 43  1  0
  1 44  1  0
  1 45  1  0
  2  3  1  0
  3  4  2  0
  4  5  1  0
  4 46  1  0
  5  6  2  0
  5 47  1  0
  6  7  1  0
  6 48  1  0
  7 42  2  0
  7  8  1  0
  8  9  1  0
  8 49  1  0
  8 50  1  0
  9 10  1  0
 10 11  2  0
 10 51  1  0
 11 32  1  0
 11 12  1  0
 12 14  1  0
 12 13  2  0
 14 16  1  0
 14 15  1  0
 15 52  1  0
 15 53  1  0
 15 54  1  0
 16 17  2  0
 17 18  1  0
 17 55  1  0
 18 19  2  0
 18 56  1  0
 19 21  1  0
 19 20  1  0
 20 57  1  0
 20 58  1  0
 20 59  1  0
 21 31  2  0
 21 22  1  0
 22 25  1  0
 22 24  2  0
 22 23  2  0
 25 26  1  0
 26 27  1  0
 26 60  1  0
 26 61  1  0
 27 28  1  0
 27 62  1  0
 27 63  1  0
 28 29  1  0
 29 30  1  0
 29 64  1  0
 29 65  1  0
 30 25  1  0
 30 66  1  0
 30 67  1  0
 31 16  1  0
 31 68  1  0
 32 41  2  0
 32 33  1  0
 33 34  2  0
 34 35  1  0
 34 69  1  0
 35 36  2  0
 35 70  1  0
 36 37  1  0
 36 71  1  0
 37 40  2  0
 37 38  1  0
 38 39  1  0
 39 72  1  0
 39 73  1  0
 39 74  1  0
 40 33  1  0
 40 75  1  0
 41  9  1  0
 42  3  1  0
 42 76  1  0
M  END
> <Name>
_AT27

> <activity>
5.419

> <prediction>
5.59514

$$$$
_AT28
  SciTegic01182412303D

 71 74  0  0  0  0            999 V2000
   -9.1161    2.0697    6.6270 C   0  0  0  0  0  4
   -7.8595    2.5107    6.2685 O   0  0  0  0  0  2
   -6.6971    1.8573    6.5881 C   0  0  0  0  0  4
   -6.6983    1.1091    7.7755 C   0  0  0  0  0  4
   -5.5892    0.4357    8.1617 C   0  0  0  0  0  4
   -4.4563    0.4877    7.3821 C   0  0  0  0  0  4
   -4.3977    1.2013    6.2138 C   0  0  0  0  0  4
   -3.1883    1.2658    5.3787 C   0  0  0  0  0  4
   -3.2076    0.1964    4.4045 N   0  0  0  0  0  3
   -2.3055   -0.1185    3.4660 C   0  0  0  0  0  4
   -2.7374   -1.2280    2.7563 C   0  0  0  0  0  4
   -2.0047   -1.8487    1.6644 C   0  0  0  0  0  4
   -2.6878   -2.4176    0.7799 O   0  0  0  0  0  2
   -0.5885   -1.8264    1.5792 N   0  0  0  0  0  3
    0.0206   -2.4793    0.4121 C   0  0  0  0  0  4
    0.2411   -1.2135    2.5524 C   0  0  0  0  0  4
   -0.2153   -0.9479    3.8352 C   0  0  0  0  0  4
    0.5879   -0.3516    4.7807 C   0  0  0  0  0  4
    1.9002    0.0123    4.4884 C   0  0  0  0  0  4
    2.7393    0.6707    5.5204 C   0  0  0  0  0  4
    2.3793   -0.2381    3.2296 C   0  0  0  0  0  4
    4.0177    0.1749    2.8273 S   0  0  0  0  0  6
    3.9611    1.1710    1.6742 O   0  0  0  0  0  2
    4.6593    0.9757    3.9585 O   0  0  0  0  0  2
    5.0043   -1.0953    2.3419 N   0  0  0  0  0  3
    5.0879   -1.4312    0.9844 C   0  0  0  0  0  4
    6.3591   -2.1385    0.5795 C   0  0  0  0  0  4
    7.4135   -1.5685    1.2832 O   0  0  0  0  0  2
    7.3024   -1.9262    2.6026 C   0  0  0  0  0  4
    5.9909   -1.5413    3.2377 C   0  0  0  0  0  4
    1.5365   -0.8481    2.2828 C   0  0  0  0  0  4
   -3.9473   -1.5667    3.3151 C   0  0  0  0  0  4
   -4.8083   -2.6790    2.9097 C   0  0  0  0  0  4
   -6.0670   -2.8171    3.7442 C   0  0  0  0  0  4
   -5.2352   -2.4972    1.4499 C   0  0  0  0  0  4
   -4.2072   -0.6780    4.3194 N   0  0  0  0  0  3
   -5.5500    1.8933    5.8249 C   0  0  0  0  0  4
   -9.8525    2.7533    6.2591 H   0  0  0  0  0  1
   -9.1834    2.0128    7.6933 H   0  0  0  0  0  1
   -9.2873    1.1007    6.2067 H   0  0  0  0  0  1
   -7.5810    1.0707    8.3790 H   0  0  0  0  0  1
   -5.5934   -0.1336    9.0676 H   0  0  0  0  0  1
   -3.5877   -0.0498    7.7006 H   0  0  0  0  0  1
   -2.3224    1.1654    5.9992 H   0  0  0  0  0  1
   -3.1566    2.2076    4.8717 H   0  0  0  0  0  1
   -1.3900    0.4070    3.2905 H   0  0  0  0  0  1
    1.0855   -2.3914    0.4696 H   0  0  0  0  0  1
   -0.3284   -2.0079   -0.4828 H   0  0  0  0  0  1
   -0.2517   -3.5140    0.3997 H   0  0  0  0  0  1
   -1.2183   -1.2135    4.0966 H   0  0  0  0  0  1
    0.1968   -0.1641    5.7588 H   0  0  0  0  0  1
    3.2616   -0.0741    6.0838 H   0  0  0  0  0  1
    2.1157    1.2417    6.1761 H   0  0  0  0  0  1
    3.4455    1.3191    5.0455 H   0  0  0  0  0  1
    5.0137   -0.5290    0.4140 H   0  0  0  0  0  1
    4.2628   -2.0707    0.7492 H   0  0  0  0  0  1
    6.5198   -2.0219   -0.4720 H   0  0  0  0  0  1
    6.2860   -3.1795    0.8159 H   0  0  0  0  0  1
    8.0914   -1.4507    3.1470 H   0  0  0  0  0  1
    7.4105   -2.9884    2.6727 H   0  0  0  0  0  1
    6.1802   -0.7567    3.9402 H   0  0  0  0  0  1
    5.6083   -2.3972    3.7534 H   0  0  0  0  0  1
    1.9246   -1.0367    1.3036 H   0  0  0  0  0  1
   -4.2434   -3.5832    3.0007 H   0  0  0  0  0  1
   -6.6411   -3.6473    3.3891 H   0  0  0  0  0  1
   -6.6476   -1.9218    3.6646 H   0  0  0  0  0  1
   -5.8004   -2.9795    4.7677 H   0  0  0  0  0  1
   -5.8641   -3.3122    1.1581 H   0  0  0  0  0  1
   -4.3672   -2.4749    0.8247 H   0  0  0  0  0  1
   -5.7724   -1.5776    1.3473 H   0  0  0  0  0  1
   -5.5404    2.4610    4.9180 H   0  0  0  0  0  1
  1  2  1  0
  1 38  1  0
  1 39  1  0
  1 40  1  0
  2  3  1  0
  3  4  2  0
  4  5  1  0
  4 41  1  0
  5  6  2  0
  5 42  1  0
  6  7  1  0
  6 43  1  0
  7 37  2  0
  7  8  1  0
  8  9  1  0
  8 44  1  0
  8 45  1  0
  9 10  1  0
 10 11  2  0
 10 46  1  0
 11 32  1  0
 11 12  1  0
 12 14  1  0
 12 13  2  0
 14 16  1  0
 14 15  1  0
 15 47  1  0
 15 48  1  0
 15 49  1  0
 16 17  2  0
 17 18  1  0
 17 50  1  0
 18 19  2  0
 18 51  1  0
 19 21  1  0
 19 20  1  0
 20 52  1  0
 20 53  1  0
 20 54  1  0
 21 31  2  0
 21 22  1  0
 22 25  1  0
 22 24  2  0
 22 23  2  0
 25 26  1  0
 26 27  1  0
 26 55  1  0
 26 56  1  0
 27 28  1  0
 27 57  1  0
 27 58  1  0
 28 29  1  0
 29 30  1  0
 29 59  1  0
 29 60  1  0
 30 25  1  0
 30 61  1  0
 30 62  1  0
 31 16  1  0
 31 63  1  0
 32 36  2  0
 32 33  1  0
 33 35  1  0
 33 34  1  0
 33 64  1  0
 34 65  1  0
 34 66  1  0
 34 67  1  0
 35 68  1  0
 35 69  1  0
 35 70  1  0
 36  9  1  0
 37  3  1  0
 37 71  1  0
M  END
> <Name>
_AT28

> <activity>
5.273

> <prediction>
5.80855428571429

$$$$
_AT29
  SciTegic01182412303D

 55 58  0  0  0  0            999 V2000
   -7.6983   -3.4781    3.1823 C   0  0  0  0  0  4
   -6.7495   -3.1928    2.0789 C   0  0  0  0  0  4
   -7.1222   -3.2973    0.7614 C   0  0  0  0  0  4
   -6.1993   -3.0187   -0.2322 C   0  0  0  0  0  4
   -4.9123   -2.6385    0.0651 C   0  0  0  0  0  4
   -4.5405   -2.5344    1.3754 C   0  0  0  0  0  4
   -3.2125   -2.1377    1.7533 N   0  0  0  0  0  3
   -2.1161   -2.3488    1.0714 N   0  0  0  0  0  3
   -1.0401   -1.8657    1.6945 C   0  0  0  0  0  4
   -1.5023   -1.2919    2.8892 C   0  0  0  0  0  4
   -0.6026   -0.6321    3.8414 C   0  0  0  0  0  4
   -0.9455   -0.6720    5.0611 O   0  0  0  0  0  2
    0.5875    0.0317    3.5480 N   0  0  0  0  0  3
    1.1958    0.2393    2.2920 C   0  0  0  0  0  4
    0.4126    0.1253    1.1445 C   0  0  0  0  0  4
    0.8894    0.3236   -0.1225 C   0  0  0  0  0  4
    2.2056    0.6539   -0.3095 C   0  0  0  0  0  4
    3.0089    0.7756    0.7946 C   0  0  0  0  0  4
    4.6919    1.2069    0.5555 S   0  0  0  0  0  6
    5.3603    1.3048    1.8962 O   0  0  0  0  0  2
    4.8119    2.5466   -0.1077 O   0  0  0  0  0  2
    5.4901    0.0142   -0.4029 N   0  0  0  0  0  3
    5.2705   -1.3201    0.0558 C   0  0  0  0  0  4
    6.2576   -1.7466    1.1221 C   0  0  0  0  0  4
    7.5517   -1.4640    0.7467 O   0  0  0  0  0  2
    7.6665   -0.0850    0.6020 C   0  0  0  0  0  4
    6.8667    0.3360   -0.5975 C   0  0  0  0  0  4
    2.5074    0.5693    2.0929 C   0  0  0  0  0  4
   -2.8425   -1.4862    2.8760 C   0  0  0  0  0  4
   -3.8008   -1.0737    3.9433 C   0  0  0  0  0  4
   -5.4641   -2.8129    2.3782 C   0  0  0  0  0  4
   -7.6405   -4.5141    3.4435 H   0  0  0  0  0  1
   -8.6936   -3.2450    2.8661 H   0  0  0  0  0  1
   -7.4454   -2.8811    4.0335 H   0  0  0  0  0  1
   -8.1183   -3.5917    0.5048 H   0  0  0  0  0  1
   -6.4953   -3.1015   -1.2571 H   0  0  0  0  0  1
   -4.2132   -2.4276   -0.7169 H   0  0  0  0  0  1
   -0.0273   -1.9073    1.3521 H   0  0  0  0  0  1
    1.0905    0.4235    4.3570 H   0  0  0  0  0  1
   -0.6195   -0.1318    1.2611 H   0  0  0  0  0  1
    0.2367    0.2211   -0.9641 H   0  0  0  0  0  1
    2.5968    0.8130   -1.2926 H   0  0  0  0  0  1
    5.3585   -1.9862   -0.7769 H   0  0  0  0  0  1
    4.2821   -1.3836    0.4606 H   0  0  0  0  0  1
    6.1634   -2.8002    1.2831 H   0  0  0  0  0  1
    6.0365   -1.2258    2.0303 H   0  0  0  0  0  1
    8.6938    0.1790    0.4618 H   0  0  0  0  0  1
    7.2891    0.4024    1.4767 H   0  0  0  0  0  1
    7.2313   -0.1754   -1.4638 H   0  0  0  0  0  1
    6.9675    1.3920   -0.7379 H   0  0  0  0  0  1
    3.1603    0.6719    2.9344 H   0  0  0  0  0  1
   -4.1545   -0.0842    3.7420 H   0  0  0  0  0  1
   -3.3064   -1.0897    4.8921 H   0  0  0  0  0  1
   -4.6284   -1.7516    3.9609 H   0  0  0  0  0  1
   -5.1670   -2.7294    3.4027 H   0  0  0  0  0  1
  1  2  1  0
  1 32  1  0
  1 33  1  0
  1 34  1  0
  2  3  2  0
  3  4  1  0
  3 35  1  0
  4  5  2  0
  4 36  1  0
  5  6  1  0
  5 37  1  0
  6 31  2  0
  6  7  1  0
  7  8  1  0
  8  9  2  0
  9 10  1  0
  9 38  1  0
 10 29  2  0
 10 11  1  0
 11 13  1  0
 11 12  2  0
 13 14  1  0
 13 39  1  0
 14 15  2  0
 15 16  1  0
 15 40  1  0
 16 17  2  0
 16 41  1  0
 17 18  1  0
 17 42  1  0
 18 28  2  0
 18 19  1  0
 19 22  1  0
 19 21  2  0
 19 20  2  0
 22 23  1  0
 23 24  1  0
 23 43  1  0
 23 44  1  0
 24 25  1  0
 24 45  1  0
 24 46  1  0
 25 26  1  0
 26 27  1  0
 26 47  1  0
 26 48  1  0
 27 22  1  0
 27 49  1  0
 27 50  1  0
 28 14  1  0
 28 51  1  0
 29 30  1  0
 29  7  1  0
 30 52  1  0
 30 53  1  0
 30 54  1  0
 31  2  1  0
 31 55  1  0
M  END
> <Name>
_AT29

> <activity>
5.18

> <prediction>
6.87888904761905

$$$$
_AT30
  SciTegic01182412303D

 49 52  0  0  0  0            999 V2000
   -1.7643    4.2072   -3.3953 O   0  0  0  0  0  2
   -1.6890    3.1766   -2.7048 C   0  0  0  0  0  4
   -0.5168    2.8908   -1.9700 N   0  0  0  0  0  3
   -0.3113    1.7609   -1.1728 C   0  0  0  0  0  4
   -1.1290    0.6484   -1.4064 C   0  0  0  0  0  4
   -1.0290   -0.5285   -0.7034 C   0  0  0  0  0  4
   -0.0900   -0.6406    0.2788 C   0  0  0  0  0  4
    0.0557   -1.7849    1.0186 F   0  0  0  0  0  1
    0.7382    0.4191    0.5494 C   0  0  0  0  0  4
    1.9647    0.2788    1.8165 S   0  0  0  0  0  6
    1.2180    0.1330    3.1138 O   0  0  0  0  0  2
    2.6512    1.6333    1.8965 O   0  0  0  0  0  2
    3.0290   -0.9694    1.5004 N   0  0  0  0  0  3
    3.6290   -1.0740    0.2373 C   0  0  0  0  0  4
    4.6808   -2.1623    0.2294 C   0  0  0  0  0  4
    5.2762   -2.3436    1.4524 O   0  0  0  0  0  2
    4.4339   -2.7157    2.4790 C   0  0  0  0  0  4
    3.0378   -2.1188    2.3059 C   0  0  0  0  0  4
    0.6212    1.6136   -0.1795 C   0  0  0  0  0  4
   -2.8372    2.2281   -2.6439 C   0  0  0  0  0  4
   -3.1948    1.4169   -1.5928 C   0  0  0  0  0  4
   -4.2853    0.7235   -1.9495 N   0  0  0  0  0  3
   -4.6329    1.0681   -3.1951 N   0  0  0  0  0  3
   -5.7329    0.5616   -3.9412 C   0  0  0  0  0  4
   -6.3465    1.3563   -4.8658 C   0  0  0  0  0  4
   -7.4158    0.8428   -5.5810 C   0  0  0  0  0  4
   -7.8733   -0.4445   -5.3833 C   0  0  0  0  0  4
   -7.2615   -1.2468   -4.4566 C   0  0  0  0  0  4
   -6.2001   -0.7377   -3.7464 C   0  0  0  0  0  4
   -3.7575    1.9881   -3.6358 C   0  0  0  0  0  4
    0.2525    3.5734   -2.0265 H   0  0  0  0  0  1
   -1.8717    0.7183   -2.1735 H   0  0  0  0  0  1
   -1.6809   -1.3477   -0.9245 H   0  0  0  0  0  1
    4.0887   -0.1403   -0.0109 H   0  0  0  0  0  1
    2.8786   -1.3064   -0.4891 H   0  0  0  0  0  1
    5.4363   -1.9007   -0.4819 H   0  0  0  0  0  1
    4.2179   -3.0814   -0.0637 H   0  0  0  0  0  1
    4.8448   -2.3746    3.4062 H   0  0  0  0  0  1
    4.3557   -3.7827    2.4945 H   0  0  0  0  0  1
    2.6548   -1.8615    3.2713 H   0  0  0  0  0  1
    2.4054   -2.8553    1.8560 H   0  0  0  0  0  1
    1.2763    2.4289    0.0462 H   0  0  0  0  0  1
   -2.6896    1.3504   -0.6520 H   0  0  0  0  0  1
   -6.0079    2.3571   -5.0349 H   0  0  0  0  0  1
   -7.9008    1.4613   -6.3071 H   0  0  0  0  0  1
   -8.7016   -0.8138   -5.9510 H   0  0  0  0  0  1
   -7.6022   -2.2472   -4.2893 H   0  0  0  0  0  1
   -5.7170   -1.3584   -3.0210 H   0  0  0  0  0  1
   -3.7744    2.4556   -4.5982 H   0  0  0  0  0  1
  1  2  2  0
  2 20  1  0
  2  3  1  0
  3  4  1  0
  3 31  1  0
  4  5  2  0
  5  6  1  0
  5 32  1  0
  6  7  2  0
  6 33  1  0
  7  9  1  0
  7  8  1  0
  9 19  2  0
  9 10  1  0
 10 13  1  0
 10 12  2  0
 10 11  2  0
 13 14  1  0
 14 15  1  0
 14 34  1  0
 14 35  1  0
 15 16  1  0
 15 36  1  0
 15 37  1  0
 16 17  1  0
 17 18  1  0
 17 38  1  0
 17 39  1  0
 18 13  1  0
 18 40  1  0
 18 41  1  0
 19  4  1  0
 19 42  1  0
 20 21  1  0
 21 22  2  0
 21 43  1  0
 22 23  1  0
 23 30  1  0
 23 24  1  0
 24 25  2  0
 25 26  1  0
 25 44  1  0
 26 27  2  0
 26 45  1  0
 27 28  1  0
 27 46  1  0
 28 29  2  0
 28 47  1  0
 29 24  1  0
 29 48  1  0
 30 20  2  0
 30 49  1  0
M  END
> <Name>
_AT30

> <activity>
5.081

> <prediction>
6.58089738095238

$$$$
