AT1
  DSViewer          3D                             0

 72 76  0  0  0  0  0  0  0  0999 V2000
   -5.7881    4.5220    3.0121 C   0  0
   -6.3362    4.5093    1.7160 O   0  0
   -6.4233    3.3028    1.0065 C   0  0
   -6.9643    3.2768   -0.2725 C   0  0
   -7.0564    2.0977   -0.9811 C   0  0
   -6.6012    0.9383   -0.3990 C   0  0
   -6.0524    0.9191    0.8802 C   0  0
   -5.5778   -0.3289    1.5100 C   0  0
   -4.2189   -0.6000    1.0861 N   0  0
   -3.0555   -0.2181    1.6347 C   0  0
   -2.0113   -0.7240    0.8872 C   0  0
   -0.5719   -0.5940    1.2116 C   0  0
   -0.1457    0.4437    1.7816 O   0  0
    0.3225   -1.6220    0.8945 N   0  0
    1.7189   -1.6255    1.1287 C   0  0
    2.3690   -2.8666    1.0672 C   0  0
    3.7273   -2.9780    1.2519 C   0  0
    4.5164   -1.8786    1.5053 C   0  0
    5.9977   -2.0128    1.7081 C   0  0
    3.8900   -0.6567    1.5678 C   0  0
    4.8912    0.7411    1.8754 S   0  0
    5.4382    0.7186    3.2851 O   0  0
    3.9665    1.9544    1.8400 O   0  0
    6.0728    0.9935    0.7106 N   0  0
    5.6834    1.2418   -0.6178 C   0  0
    6.8887    0.9516   -1.5141 C   0  0
    7.9689    1.7435   -1.2312 O   0  0
    8.0891    2.1263    0.0691 C   0  0
    7.3837    1.3010    1.0880 C   0  0
    2.5040   -0.5466    1.3797 C   0  0
   -2.5717   -1.4290   -0.1427 C   0  0
   -1.9074   -2.1426   -1.2420 C   0  0
   -2.2716   -3.4285   -1.5593 C   0  0
   -1.6870   -4.1270   -2.6050 C   0  0
   -0.7118   -3.5166   -3.3522 C   0  0
   -0.0381   -4.2292   -4.4889 C   0  0
   -0.3291   -2.2073   -3.0436 C   0  0
   -0.9171   -1.5494   -2.0154 C   0  0
   -3.9209   -1.3207    0.0292 N   0  0
   -5.9824    2.1313    1.5502 C   0  0
   -6.2929    3.6862    3.5793 H   0  0
   -4.7113    4.3131    2.9530 H   0  0
   -6.0214    5.4916    3.5203 H   0  0
   -7.3190    4.2172   -0.7123 H   0  0
   -7.4873    2.1502   -1.9690 H   0  0
   -6.6732    0.0186   -0.9529 H   0  0
   -5.6220   -0.2083    2.6127 H   0  0
   -6.2320   -1.1658    1.1881 H   0  0
   -2.9727    0.4024    2.5394 H   0  0
   -0.1342   -2.4888    0.4511 H   0  0
    1.7678   -3.7569    0.8694 H   0  0
    4.2143   -3.9651    1.2004 H   0  0
    6.4690   -1.8394    0.7184 H   0  0
    6.2290   -3.0552    2.0005 H   0  0
    6.4060   -1.2503    2.3936 H   0  0
    4.8387    0.6515   -0.9912 H   0  0
    5.4470    2.3372   -0.7367 H   0  0
    6.6238    1.1443   -2.5927 H   0  0
    7.1354   -0.1413   -1.4046 H   0  0
    7.8766    3.2215    0.2149 H   0  0
    9.1947    2.0496    0.3171 H   0  0
    8.0209    0.4281    1.3491 H   0  0
    7.3493    1.9228    2.0285 H   0  0
    2.0661    0.4210    1.4320 H   0  0
   -3.0378   -3.9292   -0.9852 H   0  0
   -1.9709   -5.1402   -2.8589 H   0  0
    0.3237   -5.1916   -4.0837 H   0  0
    0.7953   -3.5974   -4.8562 H   0  0
   -0.7737   -4.4529   -5.2772 H   0  0
    0.4404   -1.7305   -3.6329 H   0  0
   -0.6398   -0.5402   -1.7597 H   0  0
   -5.5510    2.0983    2.5462 H   0  0
  1  2  1  0  0  0
  2  3  1  0  0  0
  3  4  2  0  0  0
  4  5  1  0  0  0
  5  6  2  0  0  0
  6  7  1  0  0  0
  7 40  2  0  0  0
  7  8  1  0  0  0
  8  9  1  0  0  0
  9 10  1  0  0  0
 10 11  2  0  0  0
 11 31  1  0  0  0
 11 12  1  0  0  0
 12 14  1  0  0  0
 12 13  2  0  0  0
 14 15  1  0  0  0
 15 16  2  0  0  0
 16 17  1  0  0  0
 17 18  2  0  0  0
 18 20  1  0  0  0
 18 19  1  0  0  0
 20 30  2  0  0  0
 20 21  1  0  0  0
 21 24  1  0  0  0
 21 23  2  0  0  0
 21 22  2  0  0  0
 24 25  1  0  0  0
 25 26  1  0  0  0
 26 27  1  0  0  0
 27 28  1  0  0  0
 28 29  1  0  0  0
 29 24  1  0  0  0
 30 15  1  0  0  0
 31 39  2  0  0  0
 31 32  1  0  0  0
 32 33  2  0  0  0
 33 34  1  0  0  0
 34 35  2  0  0  0
 35 37  1  0  0  0
 35 36  1  0  0  0
 37 38  2  0  0  0
 38 32  1  0  0  0
 39  9  1  0  0  0
 40  3  1  0  0  0
  1 41  1  0  0  0
  1 42  1  0  0  0
  1 43  1  0  0  0
  4 44  1  0  0  0
  5 45  1  0  0  0
  6 46  1  0  0  0
  8 47  1  0  0  0
  8 48  1  0  0  0
 10 49  1  0  0  0
 14 50  1  0  0  0
 16 51  1  0  0  0
 17 52  1  0  0  0
 19 53  1  0  0  0
 19 54  1  0  0  0
 19 55  1  0  0  0
 25 56  1  0  0  0
 25 57  1  0  0  0
 26 58  1  0  0  0
 26 59  1  0  0  0
 28 60  1  0  0  0
 28 61  1  0  0  0
 29 62  1  0  0  0
 29 63  1  0  0  0
 30 64  1  0  0  0
 33 65  1  0  0  0
 34 66  1  0  0  0
 36 67  1  0  0  0
 36 68  1  0  0  0
 36 69  1  0  0  0
 37 70  1  0  0  0
 38 71  1  0  0  0
 40 72  1  0  0  0
M  END
> <pIC50>
8.125

$$$$
AT2
  DSViewer          3D                             0

 74 79  0  0  0  0  0  0  0  0999 V2000
   -0.3731   -4.5773   -4.4728 C   0  0
   -0.9562   -3.7888   -3.3441 C   0  0
   -0.5371   -2.4980   -3.0988 C   0  0
   -1.0377   -1.7214   -2.0675 C   0  0
   -2.0153   -2.2646   -1.2307 C   0  0
   -2.5535   -1.4742   -0.1372 C   0  0
   -3.9066   -1.3367    0.0344 N   0  0
   -4.1662   -0.5653    1.0702 N   0  0
   -5.5095   -0.2194    1.5202 C   0  0
   -6.0012    1.0074    0.8845 C   0  0
   -6.6348    0.9549   -0.3148 C   0  0
   -7.0996    2.1097   -0.9056 C   0  0
   -6.9039    3.3026   -0.2506 C   0  0
   -7.3577    4.4850   -0.8112 C   0  0
   -7.1656    5.6929   -0.1563 C   0  0
   -6.5226    5.7372    1.0586 C   0  0
   -6.0623    4.5761    1.6363 C   0  0
   -6.2613    3.3635    0.9674 C   0  0
   -5.8126    2.1992    1.5258 C   0  0
   -2.9886   -0.1922    1.5857 C   0  0
   -1.9399   -0.7533    0.8437 C   0  0
   -0.5216   -0.6391    1.1256 C   0  0
   -0.1295    0.4250    1.7173 O   0  0
    0.4089   -1.6188    0.7903 N   0  0
    1.7915   -1.6088    0.9940 C   0  0
    2.5001   -2.7927    0.8022 C   0  0
    3.8597   -2.8603    0.9646 C   0  0
    4.5823   -1.7464    1.3273 C   0  0
    6.0460   -1.9121    1.4833 C   0  0
    3.9299   -0.5681    1.5248 C   0  0
    4.7880    0.8688    1.9680 S   0  0
    3.7954    2.0035    2.1828 O   0  0
    5.4685    0.7054    3.3238 O   0  0
    5.9389    1.4036    0.8548 N   0  0
    7.2909    1.3595    1.2597 C   0  0
    8.2116    1.8229    0.1595 C   0  0
    7.9994    0.9981   -0.9459 O   0  0
    6.7527    1.3418   -1.4571 C   0  0
    5.6377    1.1157   -0.5015 C   0  0
    2.5558   -0.5266    1.3545 C   0  0
   -2.4305   -3.5493   -1.4774 C   0  0
   -1.9264   -4.3155   -2.5067 C   0  0
   -1.0515   -4.6413   -5.3418 H   0  0
   -0.1598   -5.5962   -4.0556 H   0  0
    0.6132   -4.1517   -4.7491 H   0  0
    0.2304   -2.0949   -3.7686 H   0  0
   -0.7065   -0.7125   -1.8793 H   0  0
   -5.5783   -0.2016    2.6368 H   0  0
   -6.2069   -1.0512    1.2057 H   0  0
   -6.7851   -0.0032   -0.8287 H   0  0
   -7.5995    2.0454   -1.8559 H   0  0
   -7.8654    4.4595   -1.7676 H   0  0
   -7.5316    6.5843   -0.6232 H   0  0
   -6.3526    6.6584    1.6025 H   0  0
   -5.5475    4.5359    2.5884 H   0  0
   -5.3063    2.2310    2.4848 H   0  0
   -2.8584    0.4490    2.4490 H   0  0
    0.0004   -2.4962    0.3431 H   0  0
    1.9701   -3.7165    0.5113 H   0  0
    4.3458   -3.8288    0.7963 H   0  0
    6.4234   -1.4547    2.4209 H   0  0
    6.5419   -1.4047    0.6340 H   0  0
    6.3269   -2.9644    1.5033 H   0  0
    7.6883    0.4337    1.6576 H   0  0
    7.4206    2.1215    2.0875 H   0  0
    9.2588    1.7183    0.4673 H   0  0
    7.9784    2.8533   -0.1732 H   0  0
    6.5564    0.8016   -2.4053 H   0  0
    6.8020    2.4321   -1.7141 H   0  0
    4.7973    1.8103   -0.8028 H   0  0
    5.2260    0.1022   -0.6820 H   0  0
    2.0658    0.4484    1.5175 H   0  0
   -3.1916   -3.9849   -0.8338 H   0  0
   -2.2486   -5.3263   -2.7060 H   0  0
  1  2  1  0  0  0
  2  3  2  0  0  0
  3  4  1  0  0  0
  4  5  2  0  0  0
  5 41  1  0  0  0
  5  6  1  0  0  0
  6  7  2  0  0  0
  7  8  1  0  0  0
  8 20  1  0  0  0
  8  9  1  0  0  0
  9 10  1  0  0  0
 10 11  2  0  0  0
 11 12  1  0  0  0
 12 13  2  0  0  0
 13 14  1  0  0  0
 14 15  2  0  0  0
 15 16  1  0  0  0
 16 17  2  0  0  0
 17 18  1  0  0  0
 18 19  2  0  0  0
 18 13  1  0  0  0
 19 10  1  0  0  0
 20 21  2  0  0  0
 21 22  1  0  0  0
 21  6  1  0  0  0
 22 24  1  0  0  0
 22 23  2  0  0  0
 24 25  1  0  0  0
 25 26  2  0  0  0
 26 27  1  0  0  0
 27 28  2  0  0  0
 28 30  1  0  0  0
 28 29  1  0  0  0
 30 40  2  0  0  0
 30 31  1  0  0  0
 31 34  1  0  0  0
 31 33  2  0  0  0
 31 32  2  0  0  0
 34 35  1  0  0  0
 35 36  1  0  0  0
 36 37  1  0  0  0
 37 38  1  0  0  0
 38 39  1  0  0  0
 39 34  1  0  0  0
 40 25  1  0  0  0
 41 42  2  0  0  0
 42  2  1  0  0  0
  1 43  1  0  0  0
  1 44  1  0  0  0
  1 45  1  0  0  0
  3 46  1  0  0  0
  4 47  1  0  0  0
  9 48  1  0  0  0
  9 49  1  0  0  0
 11 50  1  0  0  0
 12 51  1  0  0  0
 14 52  1  0  0  0
 15 53  1  0  0  0
 16 54  1  0  0  0
 17 55  1  0  0  0
 19 56  1  0  0  0
 20 57  1  0  0  0
 24 58  1  0  0  0
 26 59  1  0  0  0
 27 60  1  0  0  0
 29 61  1  0  0  0
 29 62  1  0  0  0
 29 63  1  0  0  0
 35 64  1  0  0  0
 35 65  1  0  0  0
 36 66  1  0  0  0
 36 67  1  0  0  0
 38 68  1  0  0  0
 38 69  1  0  0  0
 39 70  1  0  0  0
 39 71  1  0  0  0
 40 72  1  0  0  0
 41 73  1  0  0  0
 42 74  1  0  0  0
M  END
> <pIC50>
7.991

$$$$
AT3
  DSViewer          3D                             0

 65 69  0  0  0  0  0  0  0  0999 V2000
   -0.7247   -4.6445   -4.5949 C   0  0
   -1.1901   -3.8203   -3.4450 C   0  0
   -2.1952   -4.2603   -2.5993 C   0  0
   -2.6039   -3.4749   -1.5460 C   0  0
   -2.0539   -2.2332   -1.2728 C   0  0
   -2.5642   -1.4298   -0.1566 C   0  0
   -3.8975   -1.1912    0.0496 N   0  0
   -4.0876   -0.4273    1.0998 N   0  0
   -5.3570    0.0301    1.6231 C   0  0
   -6.1980    0.8082    0.8974 C   0  0
   -7.3970    1.2061    1.4476 C   0  0
   -7.7460    0.8184    2.7294 C   0  0
   -6.8954    0.0242    3.4792 C   0  0
   -7.3242   -0.4789    5.1133 Cl  0  0
   -5.7163   -0.3487    2.8972 C   0  0
   -2.8740   -0.1498    1.6044 C   0  0
   -1.8901   -0.7745    0.8277 C   0  0
   -0.4565   -0.7366    1.1299 C   0  0
   -0.0318    0.2802    1.7721 O   0  0
    0.4625   -1.7201    0.7751 N   0  0
    1.8539   -1.7234    1.0281 C   0  0
    2.5686   -2.9338    0.9616 C   0  0
    3.9173   -3.0210    1.1778 C   0  0
    4.6320   -1.8906    1.4750 C   0  0
    6.1023   -1.9084    1.7209 C   0  0
    3.9813   -0.6742    1.5529 C   0  0
    4.8338    0.7986    1.9420 S   0  0
    3.8500    1.9501    1.8238 O   0  0
    5.3148    0.8155    3.3660 O   0  0
    6.0886    1.0429    0.8200 N   0  0
    5.6299    1.1930   -0.5240 C   0  0
    6.7924    1.7005   -1.3539 C   0  0
    8.0065    1.2668   -0.8367 O   0  0
    8.3047    1.8526    0.3878 C   0  0
    7.0389    2.0519    1.2181 C   0  0
    2.6209   -0.6228    1.3292 C   0  0
   -1.0537   -1.7986   -2.1173 C   0  0
   -0.6317   -2.5885   -3.1891 C   0  0
    0.2018   -4.1803   -4.9960 H   0  0
   -1.4705   -4.5665   -5.4246 H   0  0
   -0.6045   -5.7045   -4.3507 H   0  0
   -2.6234   -5.2290   -2.8142 H   0  0
   -3.3971   -3.8217   -0.8775 H   0  0
   -5.9060    1.1076   -0.1188 H   0  0
   -8.0571    1.8336    0.8392 H   0  0
   -8.6849    1.1369    3.1434 H   0  0
   -5.0544   -0.9707    3.4901 H   0  0
   -2.6611    0.4530    2.4678 H   0  0
    0.0896   -2.5706    0.2774 H   0  0
    1.9735   -3.8215    0.7243 H   0  0
    4.4175   -3.9804    1.1135 H   0  0
    6.6127   -1.5817    0.7964 H   0  0
    6.4540   -2.9363    1.9231 H   0  0
    6.2788   -1.2088    2.5684 H   0  0
    5.2448    0.2353   -0.9281 H   0  0
    4.8353    1.9519   -0.5685 H   0  0
    6.7633    2.8150   -1.3397 H   0  0
    6.6400    1.3684   -2.3972 H   0  0
    8.8044    2.8101    0.2046 H   0  0
    8.9809    1.1960    0.9651 H   0  0
    7.3084    1.9505    2.2724 H   0  0
    6.6806    3.0809    1.0004 H   0  0
    2.1272    0.3453    1.3848 H   0  0
   -0.6013   -0.8303   -1.9309 H   0  0
    0.1614   -2.2218   -3.8399 H   0  0
  1  2  1  0  0  0
  2  3  2  0  0  0
  3  4  1  0  0  0
  4  5  2  0  0  0
  5 37  1  0  0  0
  5  6  1  0  0  0
  6  7  2  0  0  0
  7  8  1  0  0  0
  8 16  1  0  0  0
  8  9  1  0  0  0
  9 10  2  0  0  0
 10 11  1  0  0  0
 11 12  2  0  0  0
 12 13  1  0  0  0
 13 15  2  0  0  0
 13 14  1  0  0  0
 15  9  1  0  0  0
 16 17  2  0  0  0
 17 18  1  0  0  0
 17  6  1  0  0  0
 18 20  1  0  0  0
 18 19  2  0  0  0
 20 21  1  0  0  0
 21 22  2  0  0  0
 22 23  1  0  0  0
 23 24  2  0  0  0
 24 26  1  0  0  0
 24 25  1  0  0  0
 26 36  2  0  0  0
 26 27  1  0  0  0
 27 30  1  0  0  0
 27 29  2  0  0  0
 27 28  2  0  0  0
 30 31  1  0  0  0
 31 32  1  0  0  0
 32 33  1  0  0  0
 33 34  1  0  0  0
 34 35  1  0  0  0
 35 30  1  0  0  0
 36 21  1  0  0  0
 37 38  2  0  0  0
 38  2  1  0  0  0
  1 39  1  0  0  0
  1 40  1  0  0  0
  1 41  1  0  0  0
  3 42  1  0  0  0
  4 43  1  0  0  0
 10 44  1  0  0  0
 11 45  1  0  0  0
 12 46  1  0  0  0
 15 47  1  0  0  0
 16 48  1  0  0  0
 20 49  1  0  0  0
 22 50  1  0  0  0
 23 51  1  0  0  0
 25 52  1  0  0  0
 25 53  1  0  0  0
 25 54  1  0  0  0
 31 55  1  0  0  0
 31 56  1  0  0  0
 32 57  1  0  0  0
 32 58  1  0  0  0
 34 59  1  0  0  0
 34 60  1  0  0  0
 35 61  1  0  0  0
 35 62  1  0  0  0
 36 63  1  0  0  0
 37 64  1  0  0  0
 38 65  1  0  0  0
M  END
> <pIC50>
7.983

$$$$
AT4
  DSViewer          3D                             0

 65 69  0  0  0  0  0  0  0  0999 V2000
   -0.2707   -4.3896   -4.5249 C   0  0
   -0.8588   -3.6057   -3.3975 C   0  0
   -1.8699   -4.1690   -2.6429 C   0  0
   -2.4390   -3.4696   -1.5773 C   0  0
   -1.9941   -2.2101   -1.2720 C   0  0
   -2.5870   -1.4592   -0.1922 C   0  0
   -3.9103   -1.2735   -0.0044 N   0  0
   -4.1566   -0.5322    1.0451 N   0  0
   -5.4557   -0.1742    1.4977 C   0  0
   -6.0683    0.9952    1.1256 C   0  0
   -7.3226    1.2993    1.5882 C   0  0
   -8.0209    0.4600    2.4364 C   0  0
   -9.6201    0.8942    2.9974 Cl  0  0
   -7.3824   -0.7103    2.7958 C   0  0
   -6.1218   -1.0356    2.3425 C   0  0
   -5.3968   -2.5477    2.8581 Cl  0  0
   -2.9653   -0.2087    1.5800 C   0  0
   -1.9497   -0.7838    0.8188 C   0  0
   -0.5303   -0.7035    1.1542 C   0  0
   -0.1391    0.3242    1.7458 O   0  0
    0.3902   -1.7213    0.8470 N   0  0
    1.7808   -1.7218    1.1166 C   0  0
    2.4447   -2.9586    1.1003 C   0  0
    3.7957   -3.0213    1.3305 C   0  0
    4.5498   -1.9020    1.5827 C   0  0
    6.0094   -2.0648    1.8235 C   0  0
    3.9216   -0.6810    1.6030 C   0  0
    4.8285    0.7745    1.8952 S   0  0
    5.4317    0.7911    3.2722 O   0  0
    3.9059    1.9783    1.8281 O   0  0
    6.0502    1.0227    0.7122 N   0  0
    5.5485    1.1712   -0.6135 C   0  0
    6.7131    1.7149   -1.4572 C   0  0
    7.9181    1.2443   -0.9966 O   0  0
    8.2866    1.6710    0.2532 C   0  0
    7.0411    1.9844    1.0759 C   0  0
    2.5588   -0.6363    1.3692 C   0  0
   -0.9772   -1.6481   -2.0348 C   0  0
   -0.4234   -2.3427   -3.0800 C   0  0
    0.1271   -5.3232   -4.0672 H   0  0
    0.6018   -3.7925   -4.8976 H   0  0
   -0.9784   -4.5664   -5.3478 H   0  0
   -2.2663   -5.1604   -2.8321 H   0  0
   -3.2234   -3.9287   -1.0073 H   0  0
   -5.5795    1.7010    0.4624 H   0  0
   -7.7979    2.2291    1.2867 H   0  0
   -7.9191   -1.3665    3.4552 H   0  0
   -2.8137    0.4020    2.4647 H   0  0
   -0.0145   -2.5796    0.3818 H   0  0
    1.8480   -3.8577    0.9002 H   0  0
    4.2597   -4.0059    1.3061 H   0  0
    6.4529   -2.3788    0.8562 H   0  0
    6.4827   -1.1384    2.1382 H   0  0
    6.1248   -2.8972    2.5510 H   0  0
    4.7310    1.9099   -0.6297 H   0  0
    5.2779    0.1976   -1.0932 H   0  0
    6.5738    1.4247   -2.5241 H   0  0
    6.6930    2.8166   -1.3221 H   0  0
    8.8620    2.6021    0.1694 H   0  0
    8.9301    0.9289    0.7729 H   0  0
    6.7192    3.0108    0.7260 H   0  0
    7.2283    2.0426    2.1449 H   0  0
    2.0708    0.3492    1.3816 H   0  0
   -0.6534   -0.6444   -1.7572 H   0  0
    0.3618   -1.8750   -3.6476 H   0  0
  1  2  1  0  0  0
  2  3  2  0  0  0
  3  4  1  0  0  0
  4  5  2  0  0  0
  5 38  1  0  0  0
  5  6  1  0  0  0
  6  7  2  0  0  0
  7  8  1  0  0  0
  8 17  1  0  0  0
  8  9  1  0  0  0
  9 10  2  0  0  0
 10 11  1  0  0  0
 11 12  2  0  0  0
 12 14  1  0  0  0
 12 13  1  0  0  0
 14 15  2  0  0  0
 15 16  1  0  0  0
 15  9  1  0  0  0
 17 18  2  0  0  0
 18 19  1  0  0  0
 18  6  1  0  0  0
 19 21  1  0  0  0
 19 20  2  0  0  0
 21 22  1  0  0  0
 22 23  2  0  0  0
 23 24  1  0  0  0
 24 25  2  0  0  0
 25 27  1  0  0  0
 25 26  1  0  0  0
 27 37  2  0  0  0
 27 28  1  0  0  0
 28 31  1  0  0  0
 28 30  2  0  0  0
 28 29  2  0  0  0
 31 32  1  0  0  0
 32 33  1  0  0  0
 33 34  1  0  0  0
 34 35  1  0  0  0
 35 36  1  0  0  0
 36 31  1  0  0  0
 37 22  1  0  0  0
 38 39  2  0  0  0
 39  2  1  0  0  0
  1 40  1  0  0  0
  1 41  1  0  0  0
  1 42  1  0  0  0
  3 43  1  0  0  0
  4 44  1  0  0  0
 10 45  1  0  0  0
 11 46  1  0  0  0
 14 47  1  0  0  0
 17 48  1  0  0  0
 21 49  1  0  0  0
 23 50  1  0  0  0
 24 51  1  0  0  0
 26 52  1  0  0  0
 26 53  1  0  0  0
 26 54  1  0  0  0
 32 55  1  0  0  0
 32 56  1  0  0  0
 33 57  1  0  0  0
 33 58  1  0  0  0
 35 59  1  0  0  0
 35 60  1  0  0  0
 36 61  1  0  0  0
 36 62  1  0  0  0
 37 63  1  0  0  0
 38 64  1  0  0  0
 39 65  1  0  0  0
M  END
> <pIC50>
7.851

$$$$
AT5
  DSViewer          3D                             0

 67 72  0  0  0  0  0  0  0  0999 V2000
   -0.5998   -4.6173   -4.4863 C   0  0
   -1.0747   -3.7531   -3.3832 C   0  0
   -2.0341   -4.2666   -2.5333 C   0  0
   -2.5038   -3.4956   -1.4968 C   0  0
   -2.0131   -2.2203   -1.3174 C   0  0
   -2.5938   -1.4265   -0.2093 C   0  0
   -3.9188   -1.2615    0.0073 N   0  0
   -4.1375   -0.5009    1.0395 N   0  0
   -5.3877   -0.0765    1.6233 C   0  0
   -6.3897   -0.8262    2.0478 N   0  0
   -7.4555   -0.2679    2.5565 C   0  0
   -8.5887   -0.9570    3.0443 C   0  0
   -9.6285   -0.2398    3.5485 C   0  0
   -9.6738    1.1206    3.6262 C   0  0
   -8.5768    1.8036    3.1549 C   0  0
   -7.4789    1.0996    2.6245 C   0  0
   -5.9538    1.4979    1.9471 S   0  0
   -2.9469   -0.1498    1.5239 C   0  0
   -1.9293   -0.7329    0.7412 C   0  0
   -0.5097   -0.5951    1.0663 C   0  0
   -0.1299    0.4508    1.6686 O   0  0
    0.4364   -1.5631    0.7475 N   0  0
    1.8316   -1.5425    0.9934 C   0  0
    2.5418   -2.7483    0.8834 C   0  0
    3.8947   -2.8044    1.0904 C   0  0
    4.6483   -1.6728    1.4216 C   0  0
    6.1140   -1.8060    1.6421 C   0  0
    3.9740   -0.4930    1.5317 C   0  0
    4.7720    1.0051    1.9162 S   0  0
    3.7499    2.1300    2.0111 O   0  0
    5.4238    0.9471    3.2753 O   0  0
    5.9304    1.5139    0.7676 N   0  0
    7.2148    1.5720    1.3401 C   0  0
    8.2342    0.9011    0.4889 C   0  0
    8.1128    1.3785   -0.8104 O   0  0
    6.9398    0.9603   -1.4195 C   0  0
    5.7538    0.9811   -0.5200 C   0  0
    2.5842   -0.4499    1.3167 C   0  0
   -1.0682   -1.7143   -2.1539 C   0  0
   -0.5897   -2.4696   -3.1913 C   0  0
    0.0592   -5.3844   -4.0436 H   0  0
   -0.0978   -3.9991   -5.2623 H   0  0
   -1.4525   -5.1758   -4.9562 H   0  0
   -2.4125   -5.2885   -2.6929 H   0  0
   -3.2713   -3.9112   -0.8215 H   0  0
   -8.6553   -2.0330    3.0291 H   0  0
  -10.4988   -0.7959    3.9227 H   0  0
  -10.5108    1.6290    4.0285 H   0  0
   -8.4855    2.8684    3.1577 H   0  0
   -2.7635    0.4853    2.3860 H   0  0
    0.0512   -2.4423    0.2721 H   0  0
    1.9858   -3.6612    0.6255 H   0  0
    4.4343   -3.7521    1.0017 H   0  0
    6.2521   -2.8413    2.0606 H   0  0
    6.5189   -1.0869    2.3506 H   0  0
    6.6505   -1.8593    0.6579 H   0  0
    7.2730    1.1161    2.3732 H   0  0
    7.5630    2.6299    1.5281 H   0  0
    9.2434    1.2796    0.8368 H   0  0
    8.2908   -0.1793    0.5867 H   0  0
    6.8268    1.5311   -2.3611 H   0  0
    7.1211   -0.0993   -1.7293 H   0  0
    4.9803    1.6204   -1.0455 H   0  0
    5.2643   -0.0173   -0.4618 H   0  0
    2.0708    0.5116    1.4045 H   0  0
   -0.7147   -0.6954   -1.9640 H   0  0
    0.1628   -2.0686   -3.8594 H   0  0
  1  2  1  0  0  0
  2  3  2  0  0  0
  3  4  1  0  0  0
  4  5  2  0  0  0
  5 39  1  0  0  0
  5  6  1  0  0  0
  6  7  2  0  0  0
  7  8  1  0  0  0
  8 18  1  0  0  0
  8  9  1  0  0  0
  9 10  2  0  0  0
 10 11  1  0  0  0
 11 12  2  0  0  0
 12 13  1  0  0  0
 13 14  2  0  0  0
 14 15  1  0  0  0
 15 16  2  0  0  0
 16 17  1  0  0  0
 16 11  1  0  0  0
 17  9  1  0  0  0
 18 19  2  0  0  0
 19 20  1  0  0  0
 19  6  1  0  0  0
 20 22  1  0  0  0
 20 21  2  0  0  0
 22 23  1  0  0  0
 23 24  2  0  0  0
 24 25  1  0  0  0
 25 26  2  0  0  0
 26 28  1  0  0  0
 26 27  1  0  0  0
 28 38  2  0  0  0
 28 29  1  0  0  0
 29 32  1  0  0  0
 29 31  2  0  0  0
 29 30  2  0  0  0
 32 33  1  0  0  0
 33 34  1  0  0  0
 34 35  1  0  0  0
 35 36  1  0  0  0
 36 37  1  0  0  0
 37 32  1  0  0  0
 38 23  1  0  0  0
 39 40  2  0  0  0
 40  2  1  0  0  0
  1 41  1  0  0  0
  1 42  1  0  0  0
  1 43  1  0  0  0
  3 44  1  0  0  0
  4 45  1  0  0  0
 12 46  1  0  0  0
 13 47  1  0  0  0
 14 48  1  0  0  0
 15 49  1  0  0  0
 18 50  1  0  0  0
 22 51  1  0  0  0
 24 52  1  0  0  0
 25 53  1  0  0  0
 27 54  1  0  0  0
 27 55  1  0  0  0
 27 56  1  0  0  0
 33 57  1  0  0  0
 33 58  1  0  0  0
 34 59  1  0  0  0
 34 60  1  0  0  0
 36 61  1  0  0  0
 36 62  1  0  0  0
 37 63  1  0  0  0
 37 64  1  0  0  0
 38 65  1  0  0  0
 39 66  1  0  0  0
 40 67  1  0  0  0
M  END
> <pIC50>
7.752

$$$$
AT6
  DSViewer          3D                             0

 71 75  0  0  0  0  0  0  0  0999 V2000
   -0.8457   -4.5372   -4.7071 C   0  0
   -1.2296   -3.7333   -3.5044 C   0  0
   -0.7087   -2.5037   -3.2258 C   0  0
   -1.0748   -1.7433   -2.1367 C   0  0
   -2.0313   -2.2316   -1.2538 C   0  0
   -2.5356   -1.4456   -0.1214 C   0  0
   -3.8664   -1.3231    0.1625 N   0  0
   -4.0743   -0.5414    1.1675 N   0  0
   -5.3798   -0.2032    1.7571 C   0  0
   -6.0066    0.9434    1.0865 C   0  0
   -6.9260    0.7598    0.0639 C   0  0
   -7.5178    1.8088   -0.5917 C   0  0
   -7.1646    3.0993   -0.1976 C   0  0
   -6.2595    3.3239    0.8083 C   0  0
   -5.8801    4.6996    1.2035 C   0  0
   -6.2398    4.8635    2.5323 F   0  0
   -4.4839    4.8203    1.1919 F   0  0
   -6.4491    5.6563    0.4020 F   0  0
   -5.6936    2.2405    1.4376 C   0  0
   -2.8805   -0.1148    1.5871 C   0  0
   -1.8763   -0.6771    0.7872 C   0  0
   -0.4472   -0.5037    1.0389 C   0  0
   -0.0472    0.5671    1.5495 O   0  0
    0.4698   -1.5121    0.7302 N   0  0
    1.8678   -1.5326    0.9147 C   0  0
    2.5100   -2.7286    0.6432 C   0  0
    3.8542   -2.8427    0.8339 C   0  0
    4.6459   -1.7889    1.3007 C   0  0
    6.0976   -2.0140    1.4459 C   0  0
    4.0390   -0.5972    1.5760 C   0  0
    4.8883    0.8003    2.1833 S   0  0
    3.9037    1.9482    2.2564 O   0  0
    5.9143    1.2679    1.1339 O   0  0
    5.6141    0.6485    3.6943 N   0  0
    7.0067    0.8366    3.6946 C   0  0
    7.7797    0.2699    4.8343 C   0  0
    6.9764   -0.0816    5.9104 O   0  0
    6.0171   -0.9706    5.4833 C   0  0
    5.0359   -0.2554    4.6132 C   0  0
    2.6550   -0.5080    1.3706 C   0  0
   -2.5636   -3.4771   -1.5235 C   0  0
   -2.1763   -4.2219   -2.6274 C   0  0
    0.2200   -4.7696   -4.7562 H   0  0
   -1.1696   -3.9932   -5.6363 H   0  0
   -1.4357   -5.4565   -4.7054 H   0  0
    0.0355   -2.0916   -3.8950 H   0  0
   -0.6252   -0.7764   -1.9621 H   0  0
   -6.0144   -1.1221    1.7542 H   0  0
   -5.2249    0.0304    2.8513 H   0  0
   -7.1929   -0.2376   -0.2320 H   0  0
   -8.2360    1.6410   -1.3904 H   0  0
   -7.6757    3.9017   -0.7434 H   0  0
   -4.9886    2.3954    2.2302 H   0  0
   -2.7413    0.5646    2.4082 H   0  0
    0.0465   -2.4128    0.2998 H   0  0
    1.9719   -3.6140    0.2676 H   0  0
    4.3103   -3.8136    0.6082 H   0  0
    6.4063   -2.5447    0.4866 H   0  0
    6.7192   -1.1237    1.4610 H   0  0
    6.3259   -2.7786    2.2273 H   0  0
    7.4539    0.5513    2.7294 H   0  0
    7.2299    1.9668    3.7220 H   0  0
    8.5016    1.0635    5.1930 H   0  0
    8.4254   -0.5931    4.5974 H   0  0
    5.4977   -1.3604    6.3889 H   0  0
    6.5042   -1.8018    4.9882 H   0  0
    4.4643   -1.0233    4.0013 H   0  0
    4.2702    0.2529    5.2516 H   0  0
    2.1763    0.4587    1.5896 H   0  0
   -3.3180   -3.9427   -0.8776 H   0  0
   -2.6049   -5.1907   -2.8235 H   0  0
  1  2  1  0  0  0
  2  3  2  0  0  0
  3  4  1  0  0  0
  4  5  2  0  0  0
  5 41  1  0  0  0
  5  6  1  0  0  0
  6  7  2  0  0  0
  7  8  1  0  0  0
  8 20  1  0  0  0
  8  9  1  0  0  0
  9 10  1  0  0  0
 10 11  2  0  0  0
 11 12  1  0  0  0
 12 13  2  0  0  0
 13 14  1  0  0  0
 14 19  2  0  0  0
 14 15  1  0  0  0
 15 18  1  0  0  0
 15 17  1  0  0  0
 15 16  1  0  0  0
 19 10  1  0  0  0
 20 21  2  0  0  0
 21 22  1  0  0  0
 21  6  1  0  0  0
 22 24  1  0  0  0
 22 23  2  0  0  0
 24 25  1  0  0  0
 25 26  2  0  0  0
 26 27  1  0  0  0
 27 28  2  0  0  0
 28 30  1  0  0  0
 28 29  1  0  0  0
 30 40  2  0  0  0
 30 31  1  0  0  0
 31 34  1  0  0  0
 31 33  2  0  0  0
 31 32  2  0  0  0
 34 35  1  0  0  0
 35 36  1  0  0  0
 36 37  1  0  0  0
 37 38  1  0  0  0
 38 39  1  0  0  0
 39 34  1  0  0  0
 40 25  1  0  0  0
 41 42  2  0  0  0
 42  2  1  0  0  0
  1 43  1  0  0  0
  1 44  1  0  0  0
  1 45  1  0  0  0
  3 46  1  0  0  0
  4 47  1  0  0  0
  9 48  1  0  0  0
  9 49  1  0  0  0
 11 50  1  0  0  0
 12 51  1  0  0  0
 13 52  1  0  0  0
 19 53  1  0  0  0
 20 54  1  0  0  0
 24 55  1  0  0  0
 26 56  1  0  0  0
 27 57  1  0  0  0
 29 58  1  0  0  0
 29 59  1  0  0  0
 29 60  1  0  0  0
 35 61  1  0  0  0
 35 62  1  0  0  0
 36 63  1  0  0  0
 36 64  1  0  0  0
 38 65  1  0  0  0
 38 66  1  0  0  0
 39 67  1  0  0  0
 39 68  1  0  0  0
 40 69  1  0  0  0
 41 70  1  0  0  0
 42 71  1  0  0  0
M  END
> <pIC50>
7.735

$$$$
AT7
  DSViewer          3D                             0

 68 72  0  0  0  0  0  0  0  0999 V2000
   -0.4200   -4.3698   -4.6532 C   0  0
   -0.9460   -3.6132   -3.4893 C   0  0
   -1.3980   -4.3283   -2.3959 C   0  0
   -1.8858   -3.5959   -1.3227 C   0  0
   -1.9587   -2.2459   -1.2400 C   0  0
   -2.5412   -1.4986   -0.1295 C   0  0
   -3.8287   -1.5096    0.2429 N   0  0
   -4.1139   -0.7696    1.2459 N   0  0
   -5.3218   -0.5098    1.9519 C   0  0
   -5.3147    0.0266    3.1976 C   0  0
   -6.4951    0.2890    3.9020 C   0  0
   -7.6617   -0.0224    3.2780 C   0  0
   -7.7125   -0.5843    1.9861 C   0  0
   -9.0181   -0.8958    1.3447 C   0  0
   -9.5948    0.2495    0.8142 F   0  0
   -9.8905   -1.4738    2.2251 F   0  0
   -8.7488   -1.7930    0.3130 F   0  0
   -6.5201   -0.8257    1.3264 C   0  0
   -2.9159   -0.1793    1.6183 C   0  0
   -1.9195   -0.6522    0.7418 C   0  0
   -0.4868   -0.4060    0.9435 C   0  0
   -0.0731    0.7066    1.2632 O   0  0
    0.3640   -1.5331    0.7702 N   0  0
    1.7498   -1.6034    0.9651 C   0  0
    2.3713   -2.8467    0.9341 C   0  0
    3.7025   -2.9495    1.1962 C   0  0
    4.4724   -1.8282    1.4978 C   0  0
    5.9188   -2.0025    1.7468 C   0  0
    3.8899   -0.5978    1.5356 C   0  0
    4.8311    0.7966    1.9589 S   0  0
    5.9831    1.0309    1.0077 O   0  0
    3.9217    2.0138    1.7292 O   0  0
    5.2860    0.8309    3.5749 N   0  0
    4.7782    1.9837    4.2893 C   0  0
    5.8511    3.0437    4.4402 C   0  0
    7.1269    2.5652    4.5412 O   0  0
    7.1722    1.2852    5.0535 C   0  0
    6.5478    0.3648    3.9804 C   0  0
    2.5198   -0.4776    1.2689 C   0  0
   -1.4929   -1.5567   -2.3562 C   0  0
   -0.9995   -2.2143   -3.4570 C   0  0
   -1.2213   -4.4420   -5.4206 H   0  0
    0.4684   -3.9324   -5.1194 H   0  0
   -0.1954   -5.4239   -4.3455 H   0  0
   -1.3672   -5.4037   -2.3828 H   0  0
   -2.2530   -4.1744   -0.4445 H   0  0
   -4.3643    0.2537    3.6637 H   0  0
   -6.4979    0.7130    4.8987 H   0  0
   -8.6079    0.1649    3.8073 H   0  0
   -6.5220   -1.2444    0.3543 H   0  0
   -2.7484    0.5077    2.4207 H   0  0
   -0.0890   -2.4505    0.4457 H   0  0
    1.7728   -3.7481    0.6989 H   0  0
    4.1691   -3.9430    1.1714 H   0  0
    6.0418   -2.3083    2.8037 H   0  0
    6.2754   -2.9059    1.1693 H   0  0
    6.5438   -1.1377    1.5523 H   0  0
    3.9796    2.4384    3.6873 H   0  0
    4.3271    1.6701    5.2566 H   0  0
    5.8411    3.7707    3.5743 H   0  0
    5.6034    3.6002    5.3828 H   0  0
    8.2514    0.9776    5.1189 H   0  0
    6.6581    1.1691    6.0161 H   0  0
    6.4047   -0.6227    4.4876 H   0  0
    7.3145    0.3119    3.1969 H   0  0
    2.1163    0.5142    1.3216 H   0  0
   -1.5339   -0.4573   -2.3385 H   0  0
   -0.6420   -1.7050   -4.3464 H   0  0
  1  2  1  0  0  0
  2  3  2  0  0  0
  3  4  1  0  0  0
  4  5  2  0  0  0
  5 40  1  0  0  0
  5  6  1  0  0  0
  6  7  2  0  0  0
  7  8  1  0  0  0
  8 19  1  0  0  0
  8  9  1  0  0  0
  9 10  2  0  0  0
 10 11  1  0  0  0
 11 12  2  0  0  0
 12 13  1  0  0  0
 13 18  2  0  0  0
 13 14  1  0  0  0
 14 17  1  0  0  0
 14 16  1  0  0  0
 14 15  1  0  0  0
 18  9  1  0  0  0
 19 20  2  0  0  0
 20 21  1  0  0  0
 20  6  1  0  0  0
 21 23  1  0  0  0
 21 22  2  0  0  0
 23 24  1  0  0  0
 24 25  2  0  0  0
 25 26  1  0  0  0
 26 27  2  0  0  0
 27 29  1  0  0  0
 27 28  1  0  0  0
 29 39  2  0  0  0
 29 30  1  0  0  0
 30 33  1  0  0  0
 30 32  2  0  0  0
 30 31  2  0  0  0
 33 34  1  0  0  0
 34 35  1  0  0  0
 35 36  1  0  0  0
 36 37  1  0  0  0
 37 38  1  0  0  0
 38 33  1  0  0  0
 39 24  1  0  0  0
 40 41  2  0  0  0
 41  2  1  0  0  0
  1 42  1  0  0  0
  1 43  1  0  0  0
  1 44  1  0  0  0
  3 45  1  0  0  0
  4 46  1  0  0  0
 10 47  1  0  0  0
 11 48  1  0  0  0
 12 49  1  0  0  0
 18 50  1  0  0  0
 19 51  1  0  0  0
 23 52  1  0  0  0
 25 53  1  0  0  0
 26 54  1  0  0  0
 28 55  1  0  0  0
 28 56  1  0  0  0
 28 57  1  0  0  0
 34 58  1  0  0  0
 34 59  1  0  0  0
 35 60  1  0  0  0
 35 61  1  0  0  0
 37 62  1  0  0  0
 37 63  1  0  0  0
 38 64  1  0  0  0
 38 65  1  0  0  0
 39 66  1  0  0  0
 40 67  1  0  0  0
 41 68  1  0  0  0
M  END
> <pIC50>
7.622

$$$$
AT8
  DSViewer          3D                             0

 65 69  0  0  0  0  0  0  0  0999 V2000
   -0.5737   -4.4309   -4.6367 C   0  0
   -1.0828   -3.6562   -3.4529 C   0  0
   -2.0654   -4.1631   -2.6313 C   0  0
   -2.5195   -3.4336   -1.5505 C   0  0
   -2.0318   -2.1818   -1.2305 C   0  0
   -2.5363   -1.4048   -0.1308 C   0  0
   -3.8877   -1.2028    0.0315 N   0  0
   -4.1315   -0.4530    1.0729 N   0  0
   -5.4289   -0.0914    1.4681 C   0  0
   -6.3887    0.2968    0.5678 C   0  0
   -7.6600    0.6505    0.9396 C   0  0
   -8.0111    0.6233    2.2588 C   0  0
   -9.2820    0.9728    2.6716 F   0  0
   -7.0678    0.2362    3.1957 C   0  0
   -5.7753   -0.1206    2.7922 C   0  0
   -2.9377   -0.1481    1.6165 C   0  0
   -1.9187   -0.7439    0.8679 C   0  0
   -0.5099   -0.6991    1.1799 C   0  0
   -0.0254    0.3040    1.8257 O   0  0
    0.4184   -1.7048    0.8286 N   0  0
    1.8110   -1.6970    1.1019 C   0  0
    2.5130   -2.9120    1.0899 C   0  0
    3.8633   -3.0065    1.3229 C   0  0
    4.6081   -1.8801    1.5859 C   0  0
    6.0701   -1.9261    1.8448 C   0  0
    3.9394   -0.6774    1.6023 C   0  0
    4.8736    0.7834    1.9402 S   0  0
    5.4458    0.7508    3.3222 O   0  0
    3.9438    1.9903    1.9099 O   0  0
    6.1070    0.9333    0.7807 N   0  0
    5.6360    1.0716   -0.5796 C   0  0
    6.7172    1.7090   -1.4447 C   0  0
    7.9868    1.3623   -1.0315 O   0  0
    8.3265    1.7806    0.2270 C   0  0
    7.0354    2.0109    1.0186 C   0  0
    2.5601   -0.5810    1.3640 C   0  0
   -1.0333   -1.6905   -2.0825 C   0  0
   -0.5771   -2.4100   -3.1583 C   0  0
   -0.8822   -3.9005   -5.5870 H   0  0
   -1.0233   -5.4287   -4.6849 H   0  0
    0.5144   -4.4176   -4.6068 H   0  0
   -2.4568   -5.1438   -2.8693 H   0  0
   -3.3051   -3.8391   -0.8928 H   0  0
   -6.0755    0.3081   -0.4858 H   0  0
   -8.3667    0.9441    0.1998 H   0  0
   -7.3512    0.2170    4.2294 H   0  0
   -5.0833   -0.4137    3.5758 H   0  0
   -2.8301    0.4655    2.4948 H   0  0
    0.0301   -2.5698    0.3201 H   0  0
    1.9121   -3.8008    0.8803 H   0  0
    4.3626   -3.9833    1.3032 H   0  0
    6.3808   -1.2826    2.7022 H   0  0
    6.3614   -2.9708    2.1637 H   0  0
    6.6808   -1.6841    0.9469 H   0  0
    4.7484    1.7235   -0.6731 H   0  0
    5.4025    0.0914   -1.0272 H   0  0
    6.6276    2.8279   -1.4536 H   0  0
    6.5890    1.3013   -2.4762 H   0  0
    8.8750    2.7366    0.2047 H   0  0
    8.9307    1.0273    0.7826 H   0  0
    6.5909    2.9401    0.5815 H   0  0
    7.2276    2.0917    2.1002 H   0  0
    2.1187    0.3950    1.3843 H   0  0
   -0.6480   -0.7244   -1.8434 H   0  0
    0.2003   -2.0365   -3.8285 H   0  0
  1  2  1  0  0  0
  2  3  2  0  0  0
  3  4  1  0  0  0
  4  5  2  0  0  0
  5 37  1  0  0  0
  5  6  1  0  0  0
  6  7  2  0  0  0
  7  8  1  0  0  0
  8 16  1  0  0  0
  8  9  1  0  0  0
  9 10  2  0  0  0
 10 11  1  0  0  0
 11 12  2  0  0  0
 12 14  1  0  0  0
 12 13  1  0  0  0
 14 15  2  0  0  0
 15  9  1  0  0  0
 16 17  2  0  0  0
 17 18  1  0  0  0
 17  6  1  0  0  0
 18 20  1  0  0  0
 18 19  2  0  0  0
 20 21  1  0  0  0
 21 22  2  0  0  0
 22 23  1  0  0  0
 23 24  2  0  0  0
 24 26  1  0  0  0
 24 25  1  0  0  0
 26 36  2  0  0  0
 26 27  1  0  0  0
 27 30  1  0  0  0
 27 29  2  0  0  0
 27 28  2  0  0  0
 30 31  1  0  0  0
 31 32  1  0  0  0
 32 33  1  0  0  0
 33 34  1  0  0  0
 34 35  1  0  0  0
 35 30  1  0  0  0
 36 21  1  0  0  0
 37 38  2  0  0  0
 38  2  1  0  0  0
  1 39  1  0  0  0
  1 40  1  0  0  0
  1 41  1  0  0  0
  3 42  1  0  0  0
  4 43  1  0  0  0
 10 44  1  0  0  0
 11 45  1  0  0  0
 14 46  1  0  0  0
 15 47  1  0  0  0
 16 48  1  0  0  0
 20 49  1  0  0  0
 22 50  1  0  0  0
 23 51  1  0  0  0
 25 52  1  0  0  0
 25 53  1  0  0  0
 25 54  1  0  0  0
 31 55  1  0  0  0
 31 56  1  0  0  0
 32 57  1  0  0  0
 32 58  1  0  0  0
 34 59  1  0  0  0
 34 60  1  0  0  0
 35 61  1  0  0  0
 35 62  1  0  0  0
 36 63  1  0  0  0
 37 64  1  0  0  0
 38 65  1  0  0  0
M  END
> <pIC50>
7.614

$$$$
AT9
  DSViewer          3D                             0

 72 76  0  0  0  0  0  0  0  0999 V2000
   -6.9093    5.7247    0.7369 C   0  0
   -6.2341    4.6565    1.3589 O   0  0
   -6.4325    3.3779    0.8931 C   0  0
   -7.2786    3.1419   -0.1718 C   0  0
   -7.4940    1.8739   -0.6583 C   0  0
   -6.8663    0.7926   -0.0925 C   0  0
   -6.0023    1.0113    0.9940 C   0  0
   -5.3993   -0.1872    1.5884 C   0  0
   -4.1022   -0.5163    1.0674 N   0  0
   -2.8808   -0.1755    1.5672 C   0  0
   -1.8782   -0.7236    0.7642 C   0  0
   -0.4489   -0.6487    1.1088 C   0  0
   -0.0604    0.3611    1.7353 O   0  0
    0.4866   -1.6203    0.7977 N   0  0
    1.8817   -1.6552    1.0878 C   0  0
    2.4938   -2.9253    1.1781 C   0  0
    3.8200   -3.0161    1.4723 C   0  0
    4.6322   -1.8903    1.6942 C   0  0
    6.0488   -2.1048    2.0735 C   0  0
    4.0331   -0.6632    1.6013 C   0  0
    4.8651    0.8357    1.8152 S   0  0
    3.8286    1.9623    2.0466 O   0  0
    5.5069    0.7389    3.2315 O   0  0
    6.0289    1.3112    0.7671 N   0  0
    7.2314    0.7378    0.4630 C   0  0
    7.4626    0.6124   -1.0526 C   0  0
    7.3437    1.8364   -1.6773 O   0  0
    6.8264    2.8573   -0.9235 C   0  0
    5.6501    2.4172   -0.0627 C   0  0
    2.6580   -0.5614    1.2976 C   0  0
   -2.5332   -1.3909   -0.2260 C   0  0
   -1.9558   -2.1125   -1.3552 C   0  0
   -0.9194   -1.6651   -2.1357 C   0  0
   -0.4967   -2.4441   -3.1904 C   0  0
   -1.0693   -3.6576   -3.4986 C   0  0
   -0.6021   -4.4881   -4.6503 C   0  0
   -1.6046   -5.4108   -4.9400 F   0  0
    0.5225   -5.2039   -4.3020 F   0  0
   -0.3794   -3.7103   -5.7632 F   0  0
   -2.1139   -4.1209   -2.7205 C   0  0
   -2.5262   -3.3258   -1.6640 C   0  0
   -3.8682   -1.2333    0.0081 N   0  0
   -5.7985    2.3015    1.4695 C   0  0
   -7.9861    5.7599    0.9976 H   0  0
   -6.3797    6.6609    1.0461 H   0  0
   -6.7433    5.6523   -0.3646 H   0  0
   -7.8173    3.9535   -0.6647 H   0  0
   -8.1701    1.6942   -1.5064 H   0  0
   -7.0226   -0.2142   -0.4592 H   0  0
   -6.0613   -1.0788    1.5239 H   0  0
   -5.2692    0.0057    2.7032 H   0  0
   -2.6959    0.4243    2.4461 H   0  0
    0.1119   -2.4771    0.2745 H   0  0
    1.8636   -3.8138    1.0032 H   0  0
    4.2965   -3.9772    1.5449 H   0  0
    6.1696   -3.0780    2.6186 H   0  0
    6.4389   -1.2687    2.6399 H   0  0
    6.6353   -2.2395    1.1460 H   0  0
    8.0492    1.5319    0.7374 H   0  0
    7.6057   -0.1561    0.9403 H   0  0
    6.8424   -0.1686   -1.4691 H   0  0
    8.5372    0.2763   -1.1353 H   0  0
    7.5939    3.3422   -0.3229 H   0  0
    6.4052    3.6242   -1.6251 H   0  0
    5.3788    3.2933    0.5607 H   0  0
    4.8288    2.1128   -0.7125 H   0  0
    2.1921    0.4126    1.2201 H   0  0
   -0.4716   -0.7202   -1.9022 H   0  0
    0.3375   -2.1095   -3.8253 H   0  0
   -2.5823   -5.0699   -2.9351 H   0  0
   -3.3639   -3.7337   -1.0825 H   0  0
   -5.1179    2.4263    2.3165 H   0  0
  1  2  1  0  0  0
  2  3  1  0  0  0
  3  4  2  0  0  0
  4  5  1  0  0  0
  5  6  2  0  0  0
  6  7  1  0  0  0
  7 43  2  0  0  0
  7  8  1  0  0  0
  8  9  1  0  0  0
  9 10  1  0  0  0
 10 11  2  0  0  0
 11 31  1  0  0  0
 11 12  1  0  0  0
 12 14  1  0  0  0
 12 13  2  0  0  0
 14 15  1  0  0  0
 15 16  2  0  0  0
 16 17  1  0  0  0
 17 18  2  0  0  0
 18 20  1  0  0  0
 18 19  1  0  0  0
 20 30  2  0  0  0
 20 21  1  0  0  0
 21 24  1  0  0  0
 21 23  2  0  0  0
 21 22  2  0  0  0
 24 25  1  0  0  0
 25 26  1  0  0  0
 26 27  1  0  0  0
 27 28  1  0  0  0
 28 29  1  0  0  0
 29 24  1  0  0  0
 30 15  1  0  0  0
 31 42  2  0  0  0
 31 32  1  0  0  0
 32 33  2  0  0  0
 33 34  1  0  0  0
 34 35  2  0  0  0
 35 40  1  0  0  0
 35 36  1  0  0  0
 36 39  1  0  0  0
 36 38  1  0  0  0
 36 37  1  0  0  0
 40 41  2  0  0  0
 41 32  1  0  0  0
 42  9  1  0  0  0
 43  3  1  0  0  0
  1 44  1  0  0  0
  1 45  1  0  0  0
  1 46  1  0  0  0
  4 47  1  0  0  0
  5 48  1  0  0  0
  6 49  1  0  0  0
  8 50  1  0  0  0
  8 51  1  0  0  0
 10 52  1  0  0  0
 14 53  1  0  0  0
 16 54  1  0  0  0
 17 55  1  0  0  0
 19 56  1  0  0  0
 19 57  1  0  0  0
 19 58  1  0  0  0
 25 59  1  0  0  0
 25 60  1  0  0  0
 26 61  1  0  0  0
 26 62  1  0  0  0
 28 63  1  0  0  0
 28 64  1  0  0  0
 29 65  1  0  0  0
 29 66  1  0  0  0
 30 67  1  0  0  0
 33 68  1  0  0  0
 34 69  1  0  0  0
 40 70  1  0  0  0
 41 71  1  0  0  0
 43 72  1  0  0  0
M  END
> <pIC50>
7.51

$$$$
AT10
  DSViewer          3D                             0

 73 77  0  0  0  0  0  0  0  0999 V2000
   -4.9300    4.7076    2.7965 C   0  0
   -5.6640    4.5563    1.6200 O   0  0
   -5.9874    3.3436    1.0369 C   0  0
   -6.7181    3.2924   -0.1292 C   0  0
   -7.0590    2.1003   -0.7383 C   0  0
   -6.6478    0.9220   -0.1501 C   0  0
   -5.9104    0.9677    1.0260 C   0  0
   -5.4767   -0.3155    1.6457 C   0  0
   -4.1693   -0.6663    1.0923 N   0  0
   -2.9993   -0.3031    1.6035 C   0  0
   -2.0027   -0.8464    0.7803 C   0  0
   -0.5877   -0.7061    1.1037 C   0  0
   -0.2330    0.3322    1.7195 O   0  0
    0.4046   -1.6472    0.7819 N   0  0
    1.7847   -1.5879    1.0385 C   0  0
    2.5288   -2.7793    0.9679 C   0  0
    3.8860   -2.7916    1.1903 C   0  0
    4.5881   -1.6464    1.4920 C   0  0
    6.0562   -1.6880    1.7401 C   0  0
    3.8842   -0.4689    1.5658 C   0  0
    4.6579    1.0560    1.9211 S   0  0
    5.2700    1.0461    3.3011 O   0  0
    3.6236    2.1644    1.9556 O   0  0
    5.8291    1.4957    0.7677 N   0  0
    7.1552    1.5313    1.2220 C   0  0
    8.2163    1.1077    0.2532 C   0  0
    7.8342    1.5478   -1.0223 O   0  0
    6.7566    0.7287   -1.3857 C   0  0
    5.5762    1.0257   -0.5451 C   0  0
    2.4931   -0.4606    1.3375 C   0  0
   -2.6379   -1.5250   -0.2130 C   0  0
   -2.0218   -2.2363   -1.3172 C   0  0
   -1.0170   -1.6629   -2.1096 C   0  0
   -0.4295   -2.3259   -3.1523 C   0  0
   -0.8069   -3.5973   -3.4676 C   0  0
   -1.7897   -4.2073   -2.7210 C   0  0
   -2.1712   -5.5096   -3.0495 O   0  0
   -3.1840   -6.1644   -2.2954 C   0  0
   -2.3684   -3.5205   -1.6745 C   0  0
   -3.9608   -1.3864    0.0229 N   0  0
   -5.5758    2.1540    1.6251 C   0  0
   -5.2459    3.9321    3.5312 H   0  0
   -5.2427    5.6981    3.2398 H   0  0
   -3.8328    4.7603    2.6513 H   0  0
   -7.0665    4.2029   -0.6333 H   0  0
   -7.6327    2.0572   -1.6547 H   0  0
   -6.9066   -0.0418   -0.6153 H   0  0
   -6.1864   -1.1433    1.4022 H   0  0
   -5.4709   -0.1928    2.7291 H   0  0
   -2.8543    0.3026    2.4951 H   0  0
    0.0350   -2.5243    0.2950 H   0  0
    1.9833   -3.6892    0.7307 H   0  0
    4.4427   -3.7407    1.1290 H   0  0
    6.2943   -2.7577    2.0029 H   0  0
    6.6712   -1.4216    0.8844 H   0  0
    6.3093   -1.1300    2.6877 H   0  0
    7.2553    0.9816    2.1771 H   0  0
    7.3809    2.6057    1.5080 H   0  0
    9.1636    1.6585    0.5209 H   0  0
    8.4594    0.0381    0.2656 H   0  0
    7.1042   -0.3210   -1.2283 H   0  0
    6.5637    0.8647   -2.4709 H   0  0
    4.9561    0.0861   -0.4671 H   0  0
    4.9134    1.7573   -1.0536 H   0  0
    1.9579    0.4809    1.3938 H   0  0
   -0.7469   -0.6409   -1.8199 H   0  0
    0.3364   -1.8292   -3.7203 H   0  0
   -0.3459   -4.1521   -4.3041 H   0  0
   -2.8596   -6.0678   -1.2355 H   0  0
   -3.2548   -7.2134   -2.6123 H   0  0
   -4.1696   -5.6396   -2.3779 H   0  0
   -3.1524   -4.0212   -1.0872 H   0  0
   -4.9902    2.1594    2.5580 H   0  0
  1  2  1  0  0  0
  2  3  1  0  0  0
  3  4  2  0  0  0
  4  5  1  0  0  0
  5  6  2  0  0  0
  6  7  1  0  0  0
  7 41  2  0  0  0
  7  8  1  0  0  0
  8  9  1  0  0  0
  9 10  1  0  0  0
 10 11  2  0  0  0
 11 31  1  0  0  0
 11 12  1  0  0  0
 12 14  1  0  0  0
 12 13  2  0  0  0
 14 15  1  0  0  0
 15 16  2  0  0  0
 16 17  1  0  0  0
 17 18  2  0  0  0
 18 20  1  0  0  0
 18 19  1  0  0  0
 20 30  2  0  0  0
 20 21  1  0  0  0
 21 24  1  0  0  0
 21 23  2  0  0  0
 21 22  2  0  0  0
 24 25  1  0  0  0
 25 26  1  0  0  0
 26 27  1  0  0  0
 27 28  1  0  0  0
 28 29  1  0  0  0
 29 24  1  0  0  0
 30 15  1  0  0  0
 31 40  2  0  0  0
 31 32  1  0  0  0
 32 33  2  0  0  0
 33 34  1  0  0  0
 34 35  2  0  0  0
 35 36  1  0  0  0
 36 39  2  0  0  0
 36 37  1  0  0  0
 37 38  1  0  0  0
 39 32  1  0  0  0
 40  9  1  0  0  0
 41  3  1  0  0  0
  1 42  1  0  0  0
  1 43  1  0  0  0
  1 44  1  0  0  0
  4 45  1  0  0  0
  5 46  1  0  0  0
  6 47  1  0  0  0
  8 48  1  0  0  0
  8 49  1  0  0  0
 10 50  1  0  0  0
 14 51  1  0  0  0
 16 52  1  0  0  0
 17 53  1  0  0  0
 19 54  1  0  0  0
 19 55  1  0  0  0
 19 56  1  0  0  0
 25 57  1  0  0  0
 25 58  1  0  0  0
 26 59  1  0  0  0
 26 60  1  0  0  0
 28 61  1  0  0  0
 28 62  1  0  0  0
 29 63  1  0  0  0
 29 64  1  0  0  0
 30 65  1  0  0  0
 33 66  1  0  0  0
 34 67  1  0  0  0
 35 68  1  0  0  0
 38 69  1  0  0  0
 38 70  1  0  0  0
 38 71  1  0  0  0
 39 72  1  0  0  0
 41 73  1  0  0  0
M  END
> <pIC50>
7.369

$$$$
AT11
  DSViewer          3D                             0

 65 69  0  0  0  0  0  0  0  0999 V2000
   -0.8374   -4.9389   -4.3494 C   0  0
   -1.2603   -4.0062   -3.2769 C   0  0
   -2.2021   -4.4521   -2.3626 C   0  0
   -2.6055   -3.6002   -1.3593 C   0  0
   -2.1150   -2.3204   -1.2211 C   0  0
   -2.6184   -1.4333   -0.1531 C   0  0
   -3.9409   -1.1936    0.0846 N   0  0
   -4.1129   -0.3556    1.0801 N   0  0
   -5.3817    0.1050    1.5871 C   0  0
   -6.3088   -0.8191    2.0209 C   0  0
   -7.5429   -0.4496    2.5193 C   0  0
   -7.8911    0.8825    2.5993 C   0  0
   -6.9642    1.8083    2.1654 C   0  0
   -5.7163    1.4367    1.6614 C   0  0
   -2.8934   -0.0241    1.5230 C   0  0
   -1.9300   -0.6951    0.7593 C   0  0
   -0.4816   -0.6354    0.9995 C   0  0
   -0.0586    0.4295    1.5613 O   0  0
    0.4372   -1.6388    0.6688 N   0  0
    1.8524   -1.6195    0.8740 C   0  0
    2.5717   -2.8035    0.6394 C   0  0
    3.9263   -2.8132    0.8253 C   0  0
    4.6501   -1.7145    1.2367 C   0  0
    6.1181   -1.8530    1.4040 C   0  0
    3.9744   -0.5486    1.4719 C   0  0
    4.8070    0.8671    1.9963 S   0  0
    5.3451    0.7107    3.4163 O   0  0
    3.7726    1.9829    2.1398 O   0  0
    6.0114    1.4577    0.9690 N   0  0
    7.3399    1.4301    1.4523 C   0  0
    8.3577    0.7228    0.6373 C   0  0
    8.0676    0.6733   -0.6986 O   0  0
    7.1244    1.5848   -1.1259 C   0  0
    5.7873    1.3756   -0.4152 C   0  0
    2.5876   -0.5512    1.2777 C   0  0
   -1.1801   -1.8968   -2.1396 C   0  0
   -0.7628   -2.7377   -3.1539 C   0  0
   -1.6456   -5.0303   -5.1025 H   0  0
    0.0889   -4.5453   -4.7995 H   0  0
   -0.6463   -5.9583   -3.9053 H   0  0
   -2.6018   -5.4533   -2.4511 H   0  0
   -3.3394   -3.9580   -0.6535 H   0  0
   -6.0452   -1.8782    1.9628 H   0  0
   -8.2346   -1.2021    2.8464 H   0  0
   -8.8456    1.2224    2.9821 H   0  0
   -7.2443    2.8685    2.2300 H   0  0
   -5.0080    2.1640    1.3288 H   0  0
   -2.6485    0.6516    2.3390 H   0  0
    0.0350   -2.5176    0.2408 H   0  0
    2.0215   -3.6876    0.3131 H   0  0
    4.4487   -3.7621    0.6300 H   0  0
    6.5213   -1.3164    2.2579 H   0  0
    6.3362   -2.9298    1.5893 H   0  0
    6.6258   -1.6292    0.4253 H   0  0
    7.7084    2.4592    1.6899 H   0  0
    7.3057    0.9287    2.4674 H   0  0
    9.3426    1.2464    0.7803 H   0  0
    8.5309   -0.3190    1.0310 H   0  0
    7.4905    2.5928   -0.8367 H   0  0
    7.0401    1.5506   -2.2120 H   0  0
    5.1393    2.2144   -0.7495 H   0  0
    5.2931    0.4478   -0.7645 H   0  0
    2.0791    0.4094    1.4692 H   0  0
   -0.7759   -0.8979   -2.0584 H   0  0
   -0.0235   -2.4113   -3.8857 H   0  0
  1  2  1  0  0  0
  2  3  2  0  0  0
  3  4  1  0  0  0
  4  5  2  0  0  0
  5 36  1  0  0  0
  5  6  1  0  0  0
  6  7  2  0  0  0
  7  8  1  0  0  0
  8 15  1  0  0  0
  8  9  1  0  0  0
  9 10  2  0  0  0
 10 11  1  0  0  0
 11 12  2  0  0  0
 12 13  1  0  0  0
 13 14  2  0  0  0
 14  9  1  0  0  0
 15 16  2  0  0  0
 16 17  1  0  0  0
 16  6  1  0  0  0
 17 19  1  0  0  0
 17 18  2  0  0  0
 19 20  1  0  0  0
 20 21  2  0  0  0
 21 22  1  0  0  0
 22 23  2  0  0  0
 23 25  1  0  0  0
 23 24  1  0  0  0
 25 35  2  0  0  0
 25 26  1  0  0  0
 26 29  1  0  0  0
 26 28  2  0  0  0
 26 27  2  0  0  0
 29 30  1  0  0  0
 30 31  1  0  0  0
 31 32  1  0  0  0
 32 33  1  0  0  0
 33 34  1  0  0  0
 34 29  1  0  0  0
 35 20  1  0  0  0
 36 37  2  0  0  0
 37  2  1  0  0  0
  1 38  1  0  0  0
  1 39  1  0  0  0
  1 40  1  0  0  0
  3 41  1  0  0  0
  4 42  1  0  0  0
 10 43  1  0  0  0
 11 44  1  0  0  0
 12 45  1  0  0  0
 13 46  1  0  0  0
 14 47  1  0  0  0
 15 48  1  0  0  0
 19 49  1  0  0  0
 21 50  1  0  0  0
 22 51  1  0  0  0
 24 52  1  0  0  0
 24 53  1  0  0  0
 24 54  1  0  0  0
 30 55  1  0  0  0
 30 56  1  0  0  0
 31 57  1  0  0  0
 31 58  1  0  0  0
 33 59  1  0  0  0
 33 60  1  0  0  0
 34 61  1  0  0  0
 34 62  1  0  0  0
 35 63  1  0  0  0
 36 64  1  0  0  0
 37 65  1  0  0  0
M  END
> <pIC50>
7.328

$$$$
AT12
  DSViewer          3D                             0

 64 67  0  0  0  0  0  0  0  0999 V2000
   -0.4824   -4.6600   -4.4533 C   0  0
   -1.0620   -3.8627   -3.3324 C   0  0
   -0.6436   -2.5750   -3.1262 C   0  0
   -1.1467   -1.8078   -2.1095 C   0  0
   -2.1101   -2.3257   -1.2478 C   0  0
   -2.6330   -1.5024   -0.1701 C   0  0
   -3.9674   -1.3105    0.0782 N   0  0
   -4.1374   -0.5110    1.0956 N   0  0
   -5.3591   -0.0279    1.7169 C   0  0
   -5.1850   -0.0417    3.2388 C   0  0
   -6.5400   -0.9018    1.4013 C   0  0
   -2.9150   -0.1582    1.5419 C   0  0
   -1.9408   -0.7799    0.7509 C   0  0
   -0.5070   -0.6518    1.0325 C   0  0
   -0.0966    0.4119    1.6145 O   0  0
    0.4642   -1.6185    0.7146 N   0  0
    1.8556   -1.5568    0.9450 C   0  0
    2.5893   -2.7372    0.7469 C   0  0
    3.9479   -2.8139    0.9293 C   0  0
    4.6429   -1.6825    1.3271 C   0  0
    6.1262   -1.7306    1.5397 C   0  0
    3.9642   -0.5084    1.5309 C   0  0
    4.8375    0.9194    2.0342 S   0  0
    3.8336    2.0367    2.2217 O   0  0
    5.7877    1.3777    0.9859 O   0  0
    5.5984    0.6381    3.5299 N   0  0
    4.7167    0.3424    4.6127 C   0  0
    5.5589   -0.2169    5.7639 C   0  0
    6.5563    0.6935    6.0631 O   0  0
    7.4156    0.9529    5.0217 C   0  0
    6.5825    1.5962    3.9149 C   0  0
    2.5895   -0.4774    1.3343 C   0  0
   -2.5118   -3.6262   -1.4810 C   0  0
   -2.0196   -4.4079   -2.4926 C   0  0
   -0.1941   -5.6739   -4.0771 H   0  0
   -1.2534   -4.7660   -5.2331 H   0  0
    0.4409   -4.1546   -4.8022 H   0  0
    0.1073   -2.1488   -3.7848 H   0  0
   -0.8286   -0.7746   -1.9227 H   0  0
   -5.5446    1.0389    1.4556 H   0  0
   -4.7335   -1.0346    3.4957 H   0  0
   -6.1841    0.0217    3.7117 H   0  0
   -4.5959    0.8061    3.5824 H   0  0
   -6.4939   -1.3371    0.3826 H   0  0
   -6.6561   -1.6491    2.1918 H   0  0
   -7.4423   -0.2380    1.4447 H   0  0
   -2.7003    0.4926    2.3678 H   0  0
    0.0572   -2.5047    0.2634 H   0  0
    2.0919   -3.6556    0.4338 H   0  0
    4.5141   -3.7179    0.7783 H   0  0
    6.5042   -2.4354    0.7505 H   0  0
    6.3804   -2.1822    2.5054 H   0  0
    6.6225   -0.7673    1.3330 H   0  0
    4.2196    1.2404    5.0382 H   0  0
    3.9155   -0.3707    4.3515 H   0  0
    4.8988   -0.2650    6.6755 H   0  0
    5.9814   -1.1996    5.5062 H   0  0
    7.9100    0.0492    4.6153 H   0  0
    8.2112    1.6245    5.3897 H   0  0
    7.3048    1.7634    3.0708 H   0  0
    6.1308    2.5209    4.2725 H   0  0
    2.1025    0.4541    1.4967 H   0  0
   -3.2620   -4.0466   -0.8189 H   0  0
   -2.3367   -5.4186   -2.6678 H   0  0
  1  2  1  0  0  0
  2  3  2  0  0  0
  3  4  1  0  0  0
  4  5  2  0  0  0
  5 33  1  0  0  0
  5  6  1  0  0  0
  6  7  2  0  0  0
  7  8  1  0  0  0
  8 12  1  0  0  0
  8  9  1  0  0  0
  9 11  1  0  0  0
  9 10  1  0  0  0
 12 13  2  0  0  0
 13 14  1  0  0  0
 13  6  1  0  0  0
 14 16  1  0  0  0
 14 15  2  0  0  0
 16 17  1  0  0  0
 17 18  2  0  0  0
 18 19  1  0  0  0
 19 20  2  0  0  0
 20 22  1  0  0  0
 20 21  1  0  0  0
 22 32  2  0  0  0
 22 23  1  0  0  0
 23 26  1  0  0  0
 23 25  2  0  0  0
 23 24  2  0  0  0
 26 27  1  0  0  0
 27 28  1  0  0  0
 28 29  1  0  0  0
 29 30  1  0  0  0
 30 31  1  0  0  0
 31 26  1  0  0  0
 32 17  1  0  0  0
 33 34  2  0  0  0
 34  2  1  0  0  0
  1 35  1  0  0  0
  1 36  1  0  0  0
  1 37  1  0  0  0
  3 38  1  0  0  0
  4 39  1  0  0  0
  9 40  1  0  0  0
 10 41  1  0  0  0
 10 42  1  0  0  0
 10 43  1  0  0  0
 11 44  1  0  0  0
 11 45  1  0  0  0
 11 46  1  0  0  0
 12 47  1  0  0  0
 16 48  1  0  0  0
 18 49  1  0  0  0
 19 50  1  0  0  0
 21 51  1  0  0  0
 21 52  1  0  0  0
 21 53  1  0  0  0
 27 54  1  0  0  0
 27 55  1  0  0  0
 28 56  1  0  0  0
 28 57  1  0  0  0
 30 58  1  0  0  0
 30 59  1  0  0  0
 31 60  1  0  0  0
 31 61  1  0  0  0
 32 62  1  0  0  0
 33 63  1  0  0  0
 34 64  1  0  0  0
M  END
> <pIC50>
7.309

$$$$
AT13
  DSViewer          3D                             0

 67 70  0  0  0  0  0  0  0  0999 V2000
   -7.0342    0.0454   -0.6080 C   0  0
   -5.9096    1.0444   -0.4965 C   0  0
   -5.6989    1.3338    0.9788 C   0  0
   -5.3343    0.0408    1.6688 C   0  0
   -4.1089   -0.4651    1.0671 N   0  0
   -2.8779   -0.1457    1.5096 C   0  0
   -1.9201   -0.7939    0.7230 C   0  0
   -0.4856   -0.6926    1.0078 C   0  0
   -0.0687    0.3670    1.5908 O   0  0
    0.4558   -1.6775    0.6892 N   0  0
    1.8506   -1.6338    0.9221 C   0  0
    2.6117   -2.7904    0.6610 C   0  0
    3.9663   -2.8116    0.8541 C   0  0
    4.6810   -1.7250    1.3104 C   0  0
    6.1530   -1.7951    1.5027 C   0  0
    3.9561   -0.5885    1.5706 C   0  0
    4.7601    0.8497    2.1557 S   0  0
    5.4189    0.5422    3.4774 O   0  0
    3.7405    1.9334    2.3786 O   0  0
    5.9439    1.4149    1.0697 N   0  0
    5.4273    1.7989   -0.2259 C   0  0
    6.5511    2.5622   -0.9166 C   0  0
    7.7943    2.1809   -0.4243 O   0  0
    8.0241    2.5268    0.8834 C   0  0
    6.6709    2.5487    1.6026 C   0  0
    2.5662   -0.5576    1.3751 C   0  0
   -2.6155   -1.4993   -0.1933 C   0  0
   -2.0961   -2.3334   -1.2593 C   0  0
   -1.1149   -1.8994   -2.1381 C   0  0
   -0.6531   -2.7440   -3.1403 C   0  0
   -1.1868   -4.0188   -3.2457 C   0  0
   -0.6957   -4.9152   -4.3130 C   0  0
   -2.1566   -4.4618   -2.3852 C   0  0
   -2.6030   -3.6181   -1.4010 C   0  0
   -3.9439   -1.2677    0.0588 N   0  0
   -7.6603    0.3195   -1.4932 H   0  0
   -6.5981   -0.9624   -0.7383 H   0  0
   -7.7171    0.0801    0.2596 H   0  0
   -6.1483    1.9951   -1.0204 H   0  0
   -5.0071    0.6024   -0.9485 H   0  0
   -6.5939    1.7992    1.4295 H   0  0
   -4.8338    2.0514    1.0849 H   0  0
   -6.1383   -0.7084    1.4534 H   0  0
   -5.1875    0.2051    2.7515 H   0  0
   -2.6634    0.5020    2.3325 H   0  0
    0.0561   -2.5640    0.2441 H   0  0
    2.0952   -3.6657    0.3020 H   0  0
    4.5630   -3.7189    0.6486 H   0  0
    6.6704   -1.6412    0.5410 H   0  0
    6.4285   -2.8435    1.8159 H   0  0
    6.5292   -1.1404    2.3111 H   0  0
    4.6075    2.5568   -0.0686 H   0  0
    5.0463    0.9648   -0.8131 H   0  0
    6.3899    3.6499   -0.9092 H   0  0
    6.5284    2.2486   -1.9872 H   0  0
    8.5638    1.6492    1.3495 H   0  0
    8.6033    3.4354    1.0434 H   0  0
    6.7920    2.4657    2.7000 H   0  0
    6.1355    3.5009    1.4072 H   0  0
    2.0627    0.3704    1.5935 H   0  0
   -0.7012   -0.8974   -2.0482 H   0  0
    0.1083   -2.4568   -3.8492 H   0  0
   -0.8217   -5.9862   -4.0236 H   0  0
    0.3545   -4.7115   -4.5953 H   0  0
   -1.2882   -4.7993   -5.2524 H   0  0
   -2.5603   -5.4507   -2.4780 H   0  0
   -3.3720   -3.9869   -0.7283 H   0  0
  1  2  1  0  0  0
  2  3  1  0  0  0
  3  4  1  0  0  0
  4  5  1  0  0  0
  5  6  1  0  0  0
  6  7  2  0  0  0
  7 27  1  0  0  0
  7  8  1  0  0  0
  8 10  1  0  0  0
  8  9  2  0  0  0
 10 11  1  0  0  0
 11 12  2  0  0  0
 12 13  1  0  0  0
 13 14  2  0  0  0
 14 16  1  0  0  0
 14 15  1  0  0  0
 16 26  2  0  0  0
 16 17  1  0  0  0
 17 20  1  0  0  0
 17 19  2  0  0  0
 17 18  2  0  0  0
 20 21  1  0  0  0
 21 22  1  0  0  0
 22 23  1  0  0  0
 23 24  1  0  0  0
 24 25  1  0  0  0
 25 20  1  0  0  0
 26 11  1  0  0  0
 27 35  2  0  0  0
 27 28  1  0  0  0
 28 29  2  0  0  0
 29 30  1  0  0  0
 30 31  2  0  0  0
 31 33  1  0  0  0
 31 32  1  0  0  0
 33 34  2  0  0  0
 34 28  1  0  0  0
 35  5  1  0  0  0
  1 36  1  0  0  0
  1 37  1  0  0  0
  1 38  1  0  0  0
  2 39  1  0  0  0
  2 40  1  0  0  0
  3 41  1  0  0  0
  3 42  1  0  0  0
  4 43  1  0  0  0
  4 44  1  0  0  0
  6 45  1  0  0  0
 10 46  1  0  0  0
 12 47  1  0  0  0
 13 48  1  0  0  0
 15 49  1  0  0  0
 15 50  1  0  0  0
 15 51  1  0  0  0
 21 52  1  0  0  0
 21 53  1  0  0  0
 22 54  1  0  0  0
 22 55  1  0  0  0
 24 56  1  0  0  0
 24 57  1  0  0  0
 25 58  1  0  0  0
 25 59  1  0  0  0
 26 60  1  0  0  0
 29 61  1  0  0  0
 30 62  1  0  0  0
 32 63  1  0  0  0
 32 64  1  0  0  0
 32 65  1  0  0  0
 33 66  1  0  0  0
 34 67  1  0  0  0
M  END
> <pIC50>
7.28

$$$$
AT14
  DSViewer          3D                             0

 65 69  0  0  0  0  0  0  0  0999 V2000
   -0.3801   -4.6091   -4.4553 C   0  0
   -0.9357   -3.7936   -3.3380 C   0  0
   -1.8991   -4.2873   -2.4852 C   0  0
   -2.4156   -3.5354   -1.4494 C   0  0
   -1.9862   -2.2484   -1.2218 C   0  0
   -2.5768   -1.4352   -0.1392 C   0  0
   -3.9244   -1.2551    0.0332 N   0  0
   -4.1177   -0.4639    1.0671 N   0  0
   -5.4331   -0.0434    1.5574 C   0  0
   -5.9818   -0.9947    2.5878 C   0  0
   -5.2608   -1.2577    3.8569 C   0  0
   -6.4747   -0.3269    3.8493 C   0  0
   -2.9438   -0.1041    1.5996 C   0  0
   -1.9603   -0.7319    0.8228 C   0  0
   -0.5160   -0.6719    1.1019 C   0  0
   -0.1079    0.3698    1.6734 O   0  0
    0.4050   -1.6803    0.7822 N   0  0
    1.8049   -1.6716    1.0124 C   0  0
    2.5189   -2.8754    0.8720 C   0  0
    3.8722   -2.9611    1.0632 C   0  0
    4.6231   -1.8618    1.4078 C   0  0
    6.0759   -1.9047    1.6234 C   0  0
    3.9415   -0.6636    1.5516 C   0  0
    4.8113    0.7862    1.9954 S   0  0
    3.8320    1.9210    2.0423 O   0  0
    5.4237    0.6593    3.3624 O   0  0
    6.0021    1.0509    0.7897 N   0  0
    5.4991    1.2653   -0.5221 C   0  0
    6.6959    1.6835   -1.3856 C   0  0
    7.2092    2.8916   -0.9836 O   0  0
    7.2991    3.0862    0.3695 C   0  0
    7.0952    1.8635    1.2000 C   0  0
    2.5594   -0.5810    1.3553 C   0  0
   -1.0160   -1.7441   -2.0770 C   0  0
   -0.5012   -2.5050   -3.1157 C   0  0
   -0.8168   -4.2859   -5.4392 H   0  0
   -0.6221   -5.6738   -4.3381 H   0  0
    0.7158   -4.4480   -4.4948 H   0  0
   -2.2533   -5.2920   -2.6399 H   0  0
   -3.1809   -3.9302   -0.7732 H   0  0
   -6.1297   -0.0514    0.6908 H   0  0
   -5.4014    1.0078    1.9375 H   0  0
   -6.5424   -1.8493    2.1762 H   0  0
   -4.2567   -0.7976    3.9429 H   0  0
   -5.4032   -2.2198    4.3646 H   0  0
   -6.2779    0.7608    3.9850 H   0  0
   -7.3903   -0.7171    4.3438 H   0  0
   -2.7242    0.5285    2.4435 H   0  0
   -0.0055   -2.5452    0.3445 H   0  0
    1.9549   -3.7569    0.6026 H   0  0
    4.4269   -3.8927    0.9557 H   0  0
    6.4049   -1.2601    2.4762 H   0  0
    6.6647   -1.6581    0.7266 H   0  0
    6.3883   -2.9476    1.9239 H   0  0
    5.0898    0.3587   -1.0098 H   0  0
    4.7133    2.0391   -0.5909 H   0  0
    6.4223    1.6913   -2.4423 H   0  0
    7.4905    0.9152   -1.2274 H   0  0
    6.5799    3.8756    0.7339 H   0  0
    8.3100    3.5058    0.6501 H   0  0
    8.0374    1.2516    1.2879 H   0  0
    6.8906    2.2022    2.2478 H   0  0
    2.0700    0.3830    1.4728 H   0  0
   -0.6765   -0.7261   -1.8975 H   0  0
    0.2638   -2.0793   -3.7740 H   0  0
  1  2  1  0  0  0
  2  3  2  0  0  0
  3  4  1  0  0  0
  4  5  2  0  0  0
  5 34  1  0  0  0
  5  6  1  0  0  0
  6  7  2  0  0  0
  7  8  1  0  0  0
  8 13  1  0  0  0
  8  9  1  0  0  0
  9 10  1  0  0  0
 10 11  1  0  0  0
 11 12  1  0  0  0
 12 10  1  0  0  0
 13 14  2  0  0  0
 14 15  1  0  0  0
 14  6  1  0  0  0
 15 17  1  0  0  0
 15 16  2  0  0  0
 17 18  1  0  0  0
 18 19  2  0  0  0
 19 20  1  0  0  0
 20 21  2  0  0  0
 21 23  1  0  0  0
 21 22  1  0  0  0
 23 33  2  0  0  0
 23 24  1  0  0  0
 24 27  1  0  0  0
 24 26  2  0  0  0
 24 25  2  0  0  0
 27 28  1  0  0  0
 28 29  1  0  0  0
 29 30  1  0  0  0
 30 31  1  0  0  0
 31 32  1  0  0  0
 32 27  1  0  0  0
 33 18  1  0  0  0
 34 35  2  0  0  0
 35  2  1  0  0  0
  1 36  1  0  0  0
  1 37  1  0  0  0
  1 38  1  0  0  0
  3 39  1  0  0  0
  4 40  1  0  0  0
  9 41  1  0  0  0
  9 42  1  0  0  0
 10 43  1  0  0  0
 11 44  1  0  0  0
 11 45  1  0  0  0
 12 46  1  0  0  0
 12 47  1  0  0  0
 13 48  1  0  0  0
 17 49  1  0  0  0
 19 50  1  0  0  0
 20 51  1  0  0  0
 22 52  1  0  0  0
 22 53  1  0  0  0
 22 54  1  0  0  0
 28 55  1  0  0  0
 28 56  1  0  0  0
 29 57  1  0  0  0
 29 58  1  0  0  0
 31 59  1  0  0  0
 31 60  1  0  0  0
 32 61  1  0  0  0
 32 62  1  0  0  0
 33 63  1  0  0  0
 34 64  1  0  0  0
 35 65  1  0  0  0
M  END
> <pIC50>
7.114

$$$$
AT15
  DSViewer          3D                             0

 64 67  0  0  0  0  0  0  0  0999 V2000
    6.0769   -1.8913    1.8988 C   0  0
    4.6413   -1.7649    1.6107 C   0  0
    3.9524   -2.9408    1.3133 C   0  0
    2.6029   -2.9181    1.0511 C   0  0
    1.8582   -1.7421    1.0668 C   0  0
    0.4682   -1.7909    0.7431 N   0  0
   -0.5235   -0.9002    1.1261 C   0  0
   -0.0871    0.0565    1.8831 O   0  0
   -1.9292   -0.8587    0.8313 C   0  0
   -2.8510   -0.1378    1.6209 C   0  0
   -4.0861   -0.2521    1.1301 N   0  0
   -5.2679    0.3848    1.7360 C   0  0
   -6.4547   -0.4536    1.3727 C   0  0
   -5.3482    1.8089    1.2811 C   0  0
   -4.0134   -0.9982    0.0794 N   0  0
   -2.6993   -1.3992   -0.1456 C   0  0
   -2.3160   -2.1818   -1.2922 C   0  0
   -2.5177   -1.6205   -2.5630 C   0  0
   -2.2602   -2.3025   -3.7272 C   0  0
   -1.7825   -3.5958   -3.6923 C   0  0
   -1.4860   -4.3715   -4.9192 C   0  0
   -0.1640   -4.7517   -4.9928 F   0  0
   -2.2653   -5.4865   -5.0459 F   0  0
   -1.7456   -3.5775   -6.0297 F   0  0
   -1.5789   -4.1634   -2.4563 C   0  0
   -1.8454   -3.4576   -1.2776 C   0  0
    2.5500   -0.6032    1.3592 C   0  0
    3.9255   -0.6019    1.6286 C   0  0
    4.7188    0.9138    1.9271 S   0  0
    5.4994    0.8366    3.2389 O   0  0
    3.6964    2.0106    2.1864 O   0  0
    5.8007    1.4231    0.7321 N   0  0
    7.1542    1.4600    1.1886 C   0  0
    7.9867    2.1274    0.0819 C   0  0
    7.7292    1.5598   -1.1451 O   0  0
    7.0476    0.3563   -1.0771 C   0  0
    5.6763    0.6293   -0.4580 C   0  0
    6.6552   -1.9344    0.9674 H   0  0
    6.2372   -2.9135    2.3670 H   0  0
    6.4419   -1.1893    2.6622 H   0  0
    4.5101   -3.8834    1.2947 H   0  0
    2.0590   -3.8255    0.8201 H   0  0
    0.1818   -2.5961    0.1554 H   0  0
   -2.5475    0.4183    2.5061 H   0  0
   -5.1175    0.2946    2.8378 H   0  0
   -6.1005   -1.5244    1.3172 H   0  0
   -6.9199   -0.1593    0.4101 H   0  0
   -7.2520   -0.3785    2.1497 H   0  0
   -4.7302    1.9590    0.3710 H   0  0
   -4.9045    2.4903    2.0488 H   0  0
   -6.4015    2.0587    1.0491 H   0  0
   -2.8952   -0.5936   -2.6253 H   0  0
   -2.4157   -1.8685   -4.7112 H   0  0
   -1.2020   -5.1845   -2.4375 H   0  0
   -1.6784   -3.9480   -0.3426 H   0  0
    2.0486    0.3353    1.3798 H   0  0
    7.5802    0.4704    1.4207 H   0  0
    7.3015    2.1043    2.0798 H   0  0
    9.0460    2.1507    0.3330 H   0  0
    7.6254    3.2011    0.0557 H   0  0
    7.6425   -0.3522   -0.5040 H   0  0
    6.8697   -0.0576   -2.0774 H   0  0
    5.1087   -0.2994   -0.2908 H   0  0
    5.1284    1.1891   -1.2705 H   0  0
  1  2  1  0  0  0
  2  3  2  0  0  0
  3  4  1  0  0  0
  4  5  2  0  0  0
  5 27  1  0  0  0
  5  6  1  0  0  0
  6  7  1  0  0  0
  7  9  1  0  0  0
  7  8  2  0  0  0
  9 10  2  0  0  0
 10 11  1  0  0  0
 11 15  1  0  0  0
 11 12  1  0  0  0
 12 14  1  0  0  0
 12 13  1  0  0  0
 15 16  2  0  0  0
 16 17  1  0  0  0
 16  9  1  0  0  0
 17 18  2  0  0  0
 18 19  1  0  0  0
 19 20  2  0  0  0
 20 25  1  0  0  0
 20 21  1  0  0  0
 21 24  1  0  0  0
 21 23  1  0  0  0
 21 22  1  0  0  0
 25 26  2  0  0  0
 26 17  1  0  0  0
 27 28  2  0  0  0
 28 29  1  0  0  0
 28  2  1  0  0  0
 29 32  1  0  0  0
 29 31  2  0  0  0
 29 30  2  0  0  0
 32 33  1  0  0  0
 33 34  1  0  0  0
 34 35  1  0  0  0
 35 36  1  0  0  0
 36 37  1  0  0  0
 37 32  1  0  0  0
  1 38  1  0  0  0
  1 39  1  0  0  0
  1 40  1  0  0  0
  3 41  1  0  0  0
  4 42  1  0  0  0
  6 43  1  0  0  0
 10 44  1  0  0  0
 12 45  1  0  0  0
 13 46  1  0  0  0
 13 47  1  0  0  0
 13 48  1  0  0  0
 14 49  1  0  0  0
 14 50  1  0  0  0
 14 51  1  0  0  0
 18 52  1  0  0  0
 19 53  1  0  0  0
 25 54  1  0  0  0
 26 55  1  0  0  0
 27 56  1  0  0  0
 33 57  1  0  0  0
 33 58  1  0  0  0
 34 59  1  0  0  0
 34 60  1  0  0  0
 36 61  1  0  0  0
 36 62  1  0  0  0
 37 63  1  0  0  0
 37 64  1  0  0  0
M  END
> <pIC50>
7.111

$$$$
AT16
  DSViewer          3D                             0

 68 71  0  0  0  0  0  0  0  0999 V2000
   -0.5171   -4.7764   -4.3805 C   0  0
   -1.0508   -3.8985   -3.3054 C   0  0
   -0.5943   -2.6169   -3.1019 C   0  0
   -1.0952   -1.8189   -2.1020 C   0  0
   -2.0948   -2.2687   -1.2400 C   0  0
   -2.6317   -1.4399   -0.1664 C   0  0
   -3.9531   -1.1846    0.0727 N   0  0
   -4.1015   -0.3963    1.1006 N   0  0
   -5.3208    0.1434    1.7128 C   0  0
   -5.8511   -0.7616    2.7703 C   0  0
   -7.0770   -0.2512    3.4412 C   0  0
   -8.2617   -0.0214    2.5573 C   0  0
   -8.0911    0.8993    1.5559 O   0  0
   -2.8762   -0.1064    1.5746 C   0  0
   -1.9355   -0.7650    0.7787 C   0  0
   -0.4915   -0.7223    1.0665 C   0  0
   -0.0584    0.3310    1.6664 O   0  0
    0.4144   -1.7464    0.7335 N   0  0
    1.8009   -1.7169    0.9847 C   0  0
    2.5147   -2.9269    0.9231 C   0  0
    3.8683   -3.0020    1.1378 C   0  0
    4.6078   -1.8762    1.4290 C   0  0
    6.0818   -1.9899    1.6645 C   0  0
    3.9505   -0.6747    1.4979 C   0  0
    4.7832    0.8032    1.8586 S   0  0
    3.7614    1.9275    1.9927 O   0  0
    5.4099    0.7131    3.2591 O   0  0
    5.9842    1.2589    0.7994 N   0  0
    7.2878    1.3003    1.2967 C   0  0
    8.2553    2.0734    0.4108 C   0  0
    8.1325    1.5656   -0.8657 O   0  0
    6.8904    1.9399   -1.3643 C   0  0
    5.7338    1.3623   -0.5727 C   0  0
    2.5641   -0.6178    1.2749 C   0  0
   -2.5487   -3.5603   -1.4529 C   0  0
   -2.0375   -4.3507   -2.4598 C   0  0
   -1.0440   -5.7674   -4.3667 H   0  0
   -0.8068   -4.3241   -5.3663 H   0  0
    0.5814   -4.9355   -4.3034 H   0  0
    0.1932   -2.2673   -3.7829 H   0  0
   -0.7290   -0.8238   -1.9589 H   0  0
   -5.0932    1.1304    2.1731 H   0  0
   -6.0348    0.2431    0.8487 H   0  0
   -5.0748   -0.9090    3.5503 H   0  0
   -6.0716   -1.7814    2.3827 H   0  0
   -6.8936    0.7016    3.9975 H   0  0
   -7.3857   -1.0254    4.1918 H   0  0
   -9.0710    0.3908    3.2249 H   0  0
   -8.6971   -0.9734    2.1737 H   0  0
   -8.2486    1.8212    1.9344 H   0  0
   -2.6274    0.5334    2.4360 H   0  0
    0.0041   -2.6177    0.2754 H   0  0
    1.9320   -3.8121    0.6957 H   0  0
    4.4194   -3.9386    1.0896 H   0  0
    6.5734   -1.6071    0.7491 H   0  0
    6.3696   -1.5083    2.5960 H   0  0
    6.3768   -3.0557    1.7380 H   0  0
    7.7286    0.3343    1.5313 H   0  0
    7.2902    1.8742    2.2717 H   0  0
    8.0754    3.1662    0.4832 H   0  0
    9.2752    1.8753    0.7989 H   0  0
    6.8156    1.5402   -2.3962 H   0  0
    6.8392    3.0512   -1.3719 H   0  0
    4.8432    1.9732   -0.8376 H   0  0
    5.5283    0.3358   -0.9873 H   0  0
    2.0816    0.3498    1.3253 H   0  0
   -3.3248   -3.9238   -0.7913 H   0  0
   -2.4075   -5.3636   -2.6106 H   0  0
  1  2  1  0  0  0
  2  3  2  0  0  0
  3  4  1  0  0  0
  4  5  2  0  0  0
  5 35  1  0  0  0
  5  6  1  0  0  0
  6  7  2  0  0  0
  7  8  1  0  0  0
  8 14  1  0  0  0
  8  9  1  0  0  0
  9 10  1  0  0  0
 10 11  1  0  0  0
 11 12  1  0  0  0
 12 13  1  0  0  0
 14 15  2  0  0  0
 15 16  1  0  0  0
 15  6  1  0  0  0
 16 18  1  0  0  0
 16 17  2  0  0  0
 18 19  1  0  0  0
 19 20  2  0  0  0
 20 21  1  0  0  0
 21 22  2  0  0  0
 22 24  1  0  0  0
 22 23  1  0  0  0
 24 34  2  0  0  0
 24 25  1  0  0  0
 25 28  1  0  0  0
 25 27  2  0  0  0
 25 26  2  0  0  0
 28 29  1  0  0  0
 29 30  1  0  0  0
 30 31  1  0  0  0
 31 32  1  0  0  0
 32 33  1  0  0  0
 33 28  1  0  0  0
 34 19  1  0  0  0
 35 36  2  0  0  0
 36  2  1  0  0  0
  1 37  1  0  0  0
  1 38  1  0  0  0
  1 39  1  0  0  0
  3 40  1  0  0  0
  4 41  1  0  0  0
  9 42  1  0  0  0
  9 43  1  0  0  0
 10 44  1  0  0  0
 10 45  1  0  0  0
 11 46  1  0  0  0
 11 47  1  0  0  0
 12 48  1  0  0  0
 12 49  1  0  0  0
 13 50  1  0  0  0
 14 51  1  0  0  0
 18 52  1  0  0  0
 20 53  1  0  0  0
 21 54  1  0  0  0
 23 55  1  0  0  0
 23 56  1  0  0  0
 23 57  1  0  0  0
 29 58  1  0  0  0
 29 59  1  0  0  0
 30 60  1  0  0  0
 30 61  1  0  0  0
 32 62  1  0  0  0
 32 63  1  0  0  0
 33 64  1  0  0  0
 33 65  1  0  0  0
 34 66  1  0  0  0
 35 67  1  0  0  0
 36 68  1  0  0  0
M  END
> <pIC50>
6.885

$$$$
AT17
  DSViewer          3D                             0

 65 68  0  0  0  0  0  0  0  0999 V2000
   -3.2221   -6.2136   -2.0476 C   0  0
   -2.2264   -5.6225   -2.8627 O   0  0
   -1.8576   -4.3171   -2.5698 C   0  0
   -0.8812   -3.7569   -3.3740 C   0  0
   -0.5018   -2.4619   -3.0978 C   0  0
   -1.0691   -1.7470   -2.0627 C   0  0
   -2.0586   -2.3044   -1.2427 C   0  0
   -2.6090   -1.4920   -0.1703 C   0  0
   -3.9442   -1.2956    0.0242 N   0  0
   -4.1607   -0.5097    1.0442 N   0  0
   -5.4518   -0.0485    1.5821 C   0  0
   -6.5540   -1.0416    1.2608 C   0  0
   -5.7832    1.3245    1.0211 C   0  0
   -2.9653   -0.1748    1.5422 C   0  0
   -1.9635   -0.7879    0.7885 C   0  0
   -0.5285   -0.7033    1.0948 C   0  0
   -0.1566    0.3459    1.6717 O   0  0
    0.4219   -1.6852    0.7995 N   0  0
    1.8099   -1.6571    1.0522 C   0  0
    2.5230   -2.8538    0.9532 C   0  0
    3.8767   -2.9468    1.1580 C   0  0
    4.6153   -1.8166    1.4821 C   0  0
    6.0925   -1.9135    1.7000 C   0  0
    3.9406   -0.6294    1.5853 C   0  0
    4.7920    0.8463    1.9790 S   0  0
    3.8369    2.0110    2.0489 O   0  0
    5.4686    0.7353    3.2946 O   0  0
    6.0331    1.1612    0.7862 N   0  0
    5.4273    1.3332   -0.5245 C   0  0
    6.4954    1.7807   -1.4698 C   0  0
    7.0191    3.0029   -1.0676 O   0  0
    7.6535    2.8266    0.1507 C   0  0
    6.6173    2.4546    1.1830 C   0  0
    2.5534   -0.5492    1.3732 C   0  0
   -2.4295   -3.5959   -1.5261 C   0  0
   -4.0929   -5.5345   -1.9805 H   0  0
   -3.5766   -7.1654   -2.4891 H   0  0
   -2.7766   -6.4328   -1.0555 H   0  0
   -0.4385   -4.3295   -4.1919 H   0  0
    0.2746   -2.0223   -3.7396 H   0  0
   -0.7497   -0.7165   -1.8621 H   0  0
   -5.4104    0.0208    2.7031 H   0  0
   -6.1616   -2.0846    1.2047 H   0  0
   -7.3452   -1.0583    2.0227 H   0  0
   -6.9846   -0.8266    0.2506 H   0  0
   -5.9868    2.0364    1.8445 H   0  0
   -4.9071    1.6580    0.3955 H   0  0
   -6.7017    1.2472    0.4149 H   0  0
   -2.7916    0.4663    2.3895 H   0  0
    0.0404   -2.5690    0.3447 H   0  0
    1.9978   -3.7647    0.7032 H   0  0
    4.4239   -3.8820    1.0817 H   0  0
    6.6321   -2.1383    0.7713 H   0  0
    6.2373   -2.7992    2.3836 H   0  0
    6.5059   -1.0582    2.2630 H   0  0
    5.0402    0.3561   -0.8400 H   0  0
    4.6649    2.1347   -0.4343 H   0  0
    7.3384    1.0441   -1.4829 H   0  0
    6.1175    1.9086   -2.5120 H   0  0
    8.1701    3.7502    0.4996 H   0  0
    8.3909    1.9943    0.1438 H   0  0
    7.0553    2.3747    2.1797 H   0  0
    5.7462    3.1653    1.1464 H   0  0
    2.0652    0.4164    1.4609 H   0  0
   -3.1877   -4.0455   -0.9065 H   0  0
  1  2  1  0  0  0
  2  3  1  0  0  0
  3  4  2  0  0  0
  4  5  1  0  0  0
  5  6  2  0  0  0
  6  7  1  0  0  0
  7 35  2  0  0  0
  7  8  1  0  0  0
  8  9  2  0  0  0
  9 10  1  0  0  0
 10 14  1  0  0  0
 10 11  1  0  0  0
 11 13  1  0  0  0
 11 12  1  0  0  0
 14 15  2  0  0  0
 15 16  1  0  0  0
 15  8  1  0  0  0
 16 18  1  0  0  0
 16 17  2  0  0  0
 18 19  1  0  0  0
 19 20  2  0  0  0
 20 21  1  0  0  0
 21 22  2  0  0  0
 22 24  1  0  0  0
 22 23  1  0  0  0
 24 34  2  0  0  0
 24 25  1  0  0  0
 25 28  1  0  0  0
 25 27  2  0  0  0
 25 26  2  0  0  0
 28 29  1  0  0  0
 29 30  1  0  0  0
 30 31  1  0  0  0
 31 32  1  0  0  0
 32 33  1  0  0  0
 33 28  1  0  0  0
 34 19  1  0  0  0
 35  3  1  0  0  0
  1 36  1  0  0  0
  1 37  1  0  0  0
  1 38  1  0  0  0
  4 39  1  0  0  0
  5 40  1  0  0  0
  6 41  1  0  0  0
 11 42  1  0  0  0
 12 43  1  0  0  0
 12 44  1  0  0  0
 12 45  1  0  0  0
 13 46  1  0  0  0
 13 47  1  0  0  0
 13 48  1  0  0  0
 14 49  1  0  0  0
 18 50  1  0  0  0
 20 51  1  0  0  0
 21 52  1  0  0  0
 23 53  1  0  0  0
 23 54  1  0  0  0
 23 55  1  0  0  0
 29 56  1  0  0  0
 29 57  1  0  0  0
 30 58  1  0  0  0
 30 59  1  0  0  0
 32 60  1  0  0  0
 32 61  1  0  0  0
 33 62  1  0  0  0
 33 63  1  0  0  0
 34 64  1  0  0  0
 35 65  1  0  0  0
M  END
> <pIC50>
6.797

$$$$
AT18
  DSViewer          3D                             0

 68 71  0  0  0  0  0  0  0  0999 V2000
   -4.9485    4.4414    3.2860 C   0  0
   -5.6188    4.5803    2.0545 O   0  0
   -5.8981    3.4560    1.2724 C   0  0
   -6.5603    3.6517    0.0597 C   0  0
   -6.8401    2.5401   -0.7172 C   0  0
   -6.4862    1.2646   -0.3342 C   0  0
   -5.8433    1.0809    0.8477 C   0  0
   -5.4276   -0.2338    1.3781 C   0  0
   -4.1104   -0.6307    0.8283 N   0  0
   -2.9199   -0.3201    1.3344 C   0  0
   -1.9350   -0.9382    0.5273 C   0  0
   -0.5080   -0.8373    0.8243 C   0  0
   -0.0673    0.3714    1.0733 O   0  0
    0.4271   -1.8625    0.8889 N   0  0
    1.8038   -1.7297    1.1724 C   0  0
    2.5845   -2.9036    1.2018 C   0  0
    3.9433   -2.8968    1.4612 C   0  0
    4.6140   -1.7026    1.7110 C   0  0
    6.0540   -1.6950    2.0010 C   0  0
    3.8833   -0.5496    1.6873 C   0  0
    4.6341    0.9823    1.9572 S   0  0
    5.3410    0.9983    3.3122 O   0  0
    3.5468    2.0401    2.1147 O   0  0
    5.7280    1.4866    0.7979 N   0  0
    7.0895    1.6025    1.1206 C   0  0
    8.0078    1.3578   -0.0712 C   0  0
    7.5897    2.2504   -1.0542 O   0  0
    6.3886    1.8126   -1.5463 C   0  0
    5.3206    1.5315   -0.5502 C   0  0
    2.4994   -0.5876    1.4209 C   0  0
   -2.6074   -1.6021   -0.4417 C   0  0
   -2.1823   -2.4873   -1.5619 C   0  0
   -0.7848   -2.4487   -1.9869 C   0  0
   -3.2456   -2.4781   -2.6504 C   0  0
   -3.9555   -1.3788   -0.2151 N   0  0
   -5.5551    2.1787    1.6416 C   0  0
   -5.2171    3.5439    3.8589 H   0  0
   -3.8481    4.4108    3.1100 H   0  0
   -5.1577    5.3250    3.9407 H   0  0
   -6.8532    4.6340   -0.2759 H   0  0
   -7.3695    2.6191   -1.6838 H   0  0
   -6.7051    0.3845   -0.9411 H   0  0
   -6.1649   -0.9774    0.9877 H   0  0
   -5.3944   -0.2985    2.4649 H   0  0
   -2.6806    0.2791    2.2027 H   0  0
    0.0497   -2.8720    0.7284 H   0  0
    2.0808   -3.8428    1.0179 H   0  0
    4.5453   -3.8007    1.4886 H   0  0
    6.5138   -2.7310    2.0193 H   0  0
    6.2813   -1.2997    3.0145 H   0  0
    6.6361   -1.1826    1.2127 H   0  0
    7.3345    2.6522    1.4671 H   0  0
    7.3697    0.9506    1.9769 H   0  0
    7.9494    0.3059   -0.4257 H   0  0
    9.0434    1.5858    0.2535 H   0  0
    5.9655    2.5418   -2.3023 H   0  0
    6.6301    0.9122   -2.1949 H   0  0
    4.4604    2.2378   -0.6592 H   0  0
    4.9014    0.5140   -0.8133 H   0  0
    1.9779    0.3547    1.4147 H   0  0
   -2.3676   -3.5564   -1.1016 H   0  0
   -0.6484   -2.7004   -3.0871 H   0  0
   -0.2355   -3.3021   -1.4560 H   0  0
   -0.2042   -1.5370   -1.8421 H   0  0
   -3.3057   -1.5478   -3.2053 H   0  0
   -4.2143   -2.7722   -2.1755 H   0  0
   -2.9794   -3.2930   -3.3420 H   0  0
   -5.0416    2.0390    2.5947 H   0  0
  1  2  1  0  0  0
  2  3  1  0  0  0
  3  4  2  0  0  0
  4  5  1  0  0  0
  5  6  2  0  0  0
  6  7  1  0  0  0
  7 36  2  0  0  0
  7  8  1  0  0  0
  8  9  1  0  0  0
  9 10  1  0  0  0
 10 11  2  0  0  0
 11 31  1  0  0  0
 11 12  1  0  0  0
 12 14  1  0  0  0
 12 13  2  0  0  0
 14 15  1  0  0  0
 15 16  2  0  0  0
 16 17  1  0  0  0
 17 18  2  0  0  0
 18 20  1  0  0  0
 18 19  1  0  0  0
 20 30  2  0  0  0
 20 21  1  0  0  0
 21 24  1  0  0  0
 21 23  2  0  0  0
 21 22  2  0  0  0
 24 25  1  0  0  0
 25 26  1  0  0  0
 26 27  1  0  0  0
 27 28  1  0  0  0
 28 29  1  0  0  0
 29 24  1  0  0  0
 30 15  1  0  0  0
 31 35  2  0  0  0
 31 32  1  0  0  0
 32 34  1  0  0  0
 32 33  1  0  0  0
 35  9  1  0  0  0
 36  3  1  0  0  0
  1 37  1  0  0  0
  1 38  1  0  0  0
  1 39  1  0  0  0
  4 40  1  0  0  0
  5 41  1  0  0  0
  6 42  1  0  0  0
  8 43  1  0  0  0
  8 44  1  0  0  0
 10 45  1  0  0  0
 14 46  1  0  0  0
 16 47  1  0  0  0
 17 48  1  0  0  0
 19 49  1  0  0  0
 19 50  1  0  0  0
 19 51  1  0  0  0
 25 52  1  0  0  0
 25 53  1  0  0  0
 26 54  1  0  0  0
 26 55  1  0  0  0
 28 56  1  0  0  0
 28 57  1  0  0  0
 29 58  1  0  0  0
 29 59  1  0  0  0
 30 60  1  0  0  0
 32 61  1  0  0  0
 33 62  1  0  0  0
 33 63  1  0  0  0
 33 64  1  0  0  0
 34 65  1  0  0  0
 34 66  1  0  0  0
 34 67  1  0  0  0
 36 68  1  0  0  0
M  END
> <pIC50>
6.7

$$$$
AT19
  DSViewer          3D                             0

 69 72  0  0  0  0  0  0  0  0999 V2000
   -0.3181   -3.8650   -2.7657 C   0  0
   -1.2750   -2.9664   -3.1421 O   0  0
   -1.6753   -2.0502   -2.1944 C   0  0
   -2.2663   -2.7331   -1.0145 C   0  0
   -2.7153   -1.7537    0.0222 C   0  0
   -4.0384   -1.4706    0.2189 N   0  0
   -4.1787   -0.5923    1.1755 N   0  0
   -5.4569   -0.0350    1.6802 C   0  0
   -5.8529    1.1818    0.9646 C   0  0
   -5.4690    2.4094    1.4305 C   0  0
   -5.8524    3.5559    0.7421 C   0  0
   -6.6154    3.4483   -0.4033 C   0  0
   -7.0097    2.2192   -0.8855 C   0  0
   -7.7747    2.0971   -2.0327 O   0  0
   -8.1970    0.8755   -2.5589 C   0  0
   -6.6086    1.1008   -0.1725 C   0  0
   -2.9641   -0.2814    1.6242 C   0  0
   -1.9956   -1.0060    0.9093 C   0  0
   -0.5602   -0.9309    1.1258 C   0  0
   -0.1926   -0.0074    1.9301 O   0  0
    0.4533   -1.7114    0.5900 N   0  0
    1.8590   -1.5905    0.8300 C   0  0
    2.6465   -2.7071    0.5233 C   0  0
    4.0104   -2.7148    0.6886 C   0  0
    4.6237   -1.5563    1.1830 C   0  0
    6.0878   -1.4931    1.3791 C   0  0
    3.8732   -0.4496    1.4905 C   0  0
    4.6150    0.9835    2.1059 S   0  0
    3.5897    2.1039    2.1913 O   0  0
    5.6106    1.4636    1.0549 O   0  0
    5.4213    0.7632    3.6080 N   0  0
    4.4613    0.3531    4.5895 C   0  0
    4.7442    0.9337    5.9578 C   0  0
    6.1171    1.0841    6.1692 O   0  0
    6.5333    2.1269    5.3461 C   0  0
    6.1371    1.9573    3.9223 C   0  0
    2.4863   -0.4678    1.3127 C   0  0
   -0.6366   -4.4872   -1.9339 H   0  0
   -0.1239   -4.5600   -3.6236 H   0  0
    0.6415   -3.3363   -2.5866 H   0  0
   -0.8404   -1.3623   -1.9449 H   0  0
   -2.5227   -1.4766   -2.6812 H   0  0
   -1.7236   -3.5566   -0.5629 H   0  0
   -3.2115   -3.2278   -1.4100 H   0  0
   -6.1943   -0.8766    1.5345 H   0  0
   -5.3550    0.0896    2.7728 H   0  0
   -4.8669    2.5492    2.3303 H   0  0
   -5.5422    4.5091    1.1223 H   0  0
   -6.9279    4.3389   -0.9596 H   0  0
   -7.3848    0.3786   -3.1618 H   0  0
   -9.0120    1.1036   -3.2946 H   0  0
   -8.5924    0.1921   -1.7996 H   0  0
   -6.9442    0.1421   -0.5927 H   0  0
   -2.7381    0.4178    2.4167 H   0  0
    0.1394   -2.4834   -0.0751 H   0  0
    2.1557   -3.5848    0.1473 H   0  0
    4.6100   -3.5803    0.4507 H   0  0
    6.4228   -0.8107    2.1664 H   0  0
    6.4144   -2.5191    1.7230 H   0  0
    6.6308   -1.3468    0.4136 H   0  0
    3.4551    0.7087    4.2543 H   0  0
    4.4118   -0.7395    4.6871 H   0  0
    4.3220    1.9738    5.9980 H   0  0
    4.2374    0.3685    6.7631 H   0  0
    6.0554    3.0612    5.7631 H   0  0
    7.6393    2.3046    5.4659 H   0  0
    7.0871    1.9372    3.3111 H   0  0
    5.5960    2.8730    3.5414 H   0  0
    1.9169    0.4237    1.5526 H   0  0
  1  2  1  0  0  0
  2  3  1  0  0  0
  3  4  1  0  0  0
  4  5  1  0  0  0
  5  6  2  0  0  0
  6  7  1  0  0  0
  7 17  1  0  0  0
  7  8  1  0  0  0
  8  9  1  0  0  0
  9 10  2  0  0  0
 10 11  1  0  0  0
 11 12  2  0  0  0
 12 13  1  0  0  0
 13 16  2  0  0  0
 13 14  1  0  0  0
 14 15  1  0  0  0
 16  9  1  0  0  0
 17 18  2  0  0  0
 18 19  1  0  0  0
 18  5  1  0  0  0
 19 21  1  0  0  0
 19 20  2  0  0  0
 21 22  1  0  0  0
 22 23  2  0  0  0
 23 24  1  0  0  0
 24 25  2  0  0  0
 25 27  1  0  0  0
 25 26  1  0  0  0
 27 37  2  0  0  0
 27 28  1  0  0  0
 28 31  1  0  0  0
 28 30  2  0  0  0
 28 29  2  0  0  0
 31 32  1  0  0  0
 32 33  1  0  0  0
 33 34  1  0  0  0
 34 35  1  0  0  0
 35 36  1  0  0  0
 36 31  1  0  0  0
 37 22  1  0  0  0
  1 38  1  0  0  0
  1 39  1  0  0  0
  1 40  1  0  0  0
  3 41  1  0  0  0
  3 42  1  0  0  0
  4 43  1  0  0  0
  4 44  1  0  0  0
  8 45  1  0  0  0
  8 46  1  0  0  0
 10 47  1  0  0  0
 11 48  1  0  0  0
 12 49  1  0  0  0
 15 50  1  0  0  0
 15 51  1  0  0  0
 15 52  1  0  0  0
 16 53  1  0  0  0
 17 54  1  0  0  0
 21 55  1  0  0  0
 23 56  1  0  0  0
 24 57  1  0  0  0
 26 58  1  0  0  0
 26 59  1  0  0  0
 26 60  1  0  0  0
 32 61  1  0  0  0
 32 62  1  0  0  0
 33 63  1  0  0  0
 33 64  1  0  0  0
 35 65  1  0  0  0
 35 66  1  0  0  0
 36 67  1  0  0  0
 36 68  1  0  0  0
 37 69  1  0  0  0
M  END
> <pIC50>
6.409

$$$$
AT20
  DSViewer          3D                             0

 67 70  0  0  0  0  0  0  0  0999 V2000
   -1.0205   -4.7249   -4.7019 C   0  0
   -1.4208   -3.8627   -3.5637 C   0  0
   -0.8518   -2.6314   -3.4041 C   0  0
   -1.2102   -1.8185   -2.3500 C   0  0
   -2.1494   -2.2533   -1.4518 C   0  0
   -2.5226   -1.4128   -0.3254 C   0  0
   -3.8043   -1.1342    0.0488 N   0  0
   -3.7756   -0.3710    1.1151 N   0  0
   -4.9605    0.1214    1.7952 C   0  0
   -5.6383    1.1300    0.9010 C   0  0
   -5.9088   -1.0410    2.1078 C   0  0
   -2.5148   -0.1203    1.4797 C   0  0
   -1.7064   -0.7832    0.5638 C   0  0
   -0.2389   -0.8052    0.5750 C   0  0
    0.4332    0.0620   -0.0237 O   0  0
    0.4356   -1.8367    1.2852 N   0  0
   -0.3739   -2.8271    1.9571 C   0  0
    1.8687   -1.8812    1.3299 C   0  0
    2.5380   -3.0711    1.1622 C   0  0
    3.9278   -3.0677    1.2293 C   0  0
    4.6389   -1.8945    1.4608 C   0  0
    6.1067   -1.9560    1.5221 C   0  0
    3.9617   -0.7049    1.6279 C   0  0
    4.8043    0.7915    1.9435 S   0  0
    3.7725    1.9164    1.9548 O   0  0
    5.3921    0.8182    3.3444 O   0  0
    5.9426    1.1816    0.7628 N   0  0
    5.4819    1.3879   -0.5606 C   0  0
    6.6942    1.8545   -1.3786 C   0  0
    7.8668    1.3088   -0.8553 O   0  0
    8.2101    1.9292    0.3529 C   0  0
    6.9347    2.1468    1.1896 C   0  0
    2.5805   -0.7403    1.5552 C   0  0
   -2.7141   -3.5060   -1.6341 C   0  0
   -2.3760   -4.3362   -2.6743 C   0  0
   -0.0270   -4.3860   -5.0455 H   0  0
   -1.7541   -4.5821   -5.5209 H   0  0
   -0.9735   -5.7723   -4.3267 H   0  0
   -0.0937   -2.2656   -4.1160 H   0  0
   -0.7340   -0.8291   -2.2647 H   0  0
   -4.6380    0.5987    2.7620 H   0  0
   -6.7373    1.0369    1.0023 H   0  0
   -5.4098    0.9702   -0.1843 H   0  0
   -5.3765    2.1679    1.1520 H   0  0
   -6.7150   -1.0053    1.3511 H   0  0
   -6.3207   -0.8897    3.1423 H   0  0
   -5.3588   -2.0032    2.0439 H   0  0
   -2.1237    0.4660    2.3029 H   0  0
    0.0561   -3.1398    2.9282 H   0  0
   -1.3606   -2.3612    2.2158 H   0  0
   -0.5752   -3.6608    1.2647 H   0  0
    1.9566   -3.9738    0.9818 H   0  0
    4.4324   -4.0122    1.0945 H   0  0
    6.6000   -2.1945    0.5602 H   0  0
    6.5775   -1.0630    1.9342 H   0  0
    6.3958   -2.7928    2.2250 H   0  0
    5.0336    0.4852   -1.0299 H   0  0
    4.7607    2.2356   -0.5710 H   0  0
    6.5529    1.5295   -2.4216 H   0  0
    6.7392    2.9489   -1.2756 H   0  0
    8.6240    2.9219    0.0928 H   0  0
    8.9245    1.3578    0.9458 H   0  0
    6.5437    3.1415    0.8940 H   0  0
    7.2193    2.0576    2.2355 H   0  0
    2.0616    0.2059    1.6872 H   0  0
   -3.4543   -3.8057   -0.8940 H   0  0
   -2.8297   -5.3248   -2.8071 H   0  0
  1  2  1  0  0  0
  2  3  2  0  0  0
  3  4  1  0  0  0
  4  5  2  0  0  0
  5 34  1  0  0  0
  5  6  1  0  0  0
  6  7  2  0  0  0
  7  8  1  0  0  0
  8 12  1  0  0  0
  8  9  1  0  0  0
  9 11  1  0  0  0
  9 10  1  0  0  0
 12 13  2  0  0  0
 13 14  1  0  0  0
 13  6  1  0  0  0
 14 16  1  0  0  0
 14 15  2  0  0  0
 16 18  1  0  0  0
 16 17  1  0  0  0
 18 19  2  0  0  0
 19 20  1  0  0  0
 20 21  2  0  0  0
 21 23  1  0  0  0
 21 22  1  0  0  0
 23 33  2  0  0  0
 23 24  1  0  0  0
 24 27  1  0  0  0
 24 26  2  0  0  0
 24 25  2  0  0  0
 27 28  1  0  0  0
 28 29  1  0  0  0
 29 30  1  0  0  0
 30 31  1  0  0  0
 31 32  1  0  0  0
 32 27  1  0  0  0
 33 18  1  0  0  0
 34 35  2  0  0  0
 35  2  1  0  0  0
  1 36  1  0  0  0
  1 37  1  0  0  0
  1 38  1  0  0  0
  3 39  1  0  0  0
  4 40  1  0  0  0
  9 41  1  0  0  0
 10 42  1  0  0  0
 10 43  1  0  0  0
 10 44  1  0  0  0
 11 45  1  0  0  0
 11 46  1  0  0  0
 11 47  1  0  0  0
 12 48  1  0  0  0
 17 49  1  0  0  0
 17 50  1  0  0  0
 17 51  1  0  0  0
 19 52  1  0  0  0
 20 53  1  0  0  0
 22 54  1  0  0  0
 22 55  1  0  0  0
 22 56  1  0  0  0
 28 57  1  0  0  0
 28 58  1  0  0  0
 29 59  1  0  0  0
 29 60  1  0  0  0
 31 61  1  0  0  0
 31 62  1  0  0  0
 32 63  1  0  0  0
 32 64  1  0  0  0
 33 65  1  0  0  0
 34 66  1  0  0  0
 35 67  1  0  0  0
M  END
> <pIC50>
6.31

$$$$
AT21
  DSViewer          3D                             0

 55 58  0  0  0  0  0  0  0  0999 V2000
    6.0635   -1.8162    1.2823 C   0  0
    4.5921   -1.6939    1.1765 C   0  0
    3.9327   -2.8357    0.7480 C   0  0
    2.5463   -2.8084    0.6316 C   0  0
    1.8179   -1.6642    0.9358 C   0  0
    0.4045   -1.6960    0.8212 N   0  0
   -0.5087   -0.6640    0.9603 C   0  0
   -0.0011    0.4894    1.2328 O   0  0
   -1.9504   -0.7606    0.8350 C   0  0
   -2.8075    0.2353    1.3751 C   0  0
   -4.0593   -0.1399    1.0975 N   0  0
   -4.0513   -1.2738    0.4370 N   0  0
   -5.2069   -1.9622   -0.0147 C   0  0
   -5.6167   -3.1261    0.5989 C   0  0
   -6.7467   -3.7575    0.1377 C   0  0
   -7.4667   -3.2472   -0.9184 C   0  0
   -7.0828   -2.0768   -1.5606 C   0  0
   -5.9518   -1.4728   -1.0756 C   0  0
   -2.7493   -1.6930    0.2541 C   0  0
   -2.4171   -2.9425   -0.4364 C   0  0
   -2.0011   -3.9514    0.3778 F   0  0
   -3.5737   -3.3986   -1.1472 F   0  0
   -1.5265   -2.7344   -1.4606 F   0  0
    2.5136   -0.5880    1.3460 C   0  0
    3.9264   -0.5551    1.4837 C   0  0
    4.7464    0.8718    2.0126 S   0  0
    5.3636    0.6728    3.3969 O   0  0
    3.6917    1.9486    2.2407 O   0  0
    5.8620    1.5296    0.9226 N   0  0
    7.2178    1.5512    1.3062 C   0  0
    8.1594    1.1019    0.2415 C   0  0
    7.8567    1.8141   -0.9285 O   0  0
    6.6648    1.2731   -1.4008 C   0  0
    5.5331    1.4240   -0.4408 C   0  0
    6.5320   -1.7560    0.2820 H   0  0
    6.2823   -2.8719    1.6261 H   0  0
    6.5243   -1.1605    2.0081 H   0  0
    4.4749   -3.7497    0.5017 H   0  0
    2.0214   -3.6851    0.2997 H   0  0
    0.0206   -2.6627    0.6128 H   0  0
   -2.4331    1.0910    1.8947 H   0  0
   -5.0462   -3.5302    1.4350 H   0  0
   -7.0676   -4.6842    0.6297 H   0  0
   -8.3669   -3.7439   -1.2881 H   0  0
   -7.6600   -1.6878   -2.3891 H   0  0
   -5.6277   -0.5417   -1.5717 H   0  0
    2.0454    0.3521    1.6129 H   0  0
    7.3692    1.0377    2.2796 H   0  0
    7.4872    2.6293    1.5229 H   0  0
    9.2092    1.3282    0.5392 H   0  0
    8.0985    0.0209    0.0961 H   0  0
    6.8555    0.2139   -1.6882 H   0  0
    6.4060    1.8003   -2.3391 H   0  0
    4.9412    2.3432   -0.7213 H   0  0
    4.8202    0.5682   -0.6160 H   0  0
  1  2  1  0  0  0
  2  3  2  0  0  0
  3  4  1  0  0  0
  4  5  2  0  0  0
  5 24  1  0  0  0
  5  6  1  0  0  0
  6  7  1  0  0  0
  7  9  1  0  0  0
  7  8  2  0  0  0
  9 10  1  0  0  0
 10 11  2  0  0  0
 11 12  1  0  0  0
 12 19  1  0  0  0
 12 13  1  0  0  0
 13 14  2  0  0  0
 14 15  1  0  0  0
 15 16  2  0  0  0
 16 17  1  0  0  0
 17 18  2  0  0  0
 18 13  1  0  0  0
 19 20  1  0  0  0
 19  9  2  0  0  0
 20 23  1  0  0  0
 20 22  1  0  0  0
 20 21  1  0  0  0
 24 25  2  0  0  0
 25 26  1  0  0  0
 25  2  1  0  0  0
 26 29  1  0  0  0
 26 28  2  0  0  0
 26 27  2  0  0  0
 29 30  1  0  0  0
 30 31  1  0  0  0
 31 32  1  0  0  0
 32 33  1  0  0  0
 33 34  1  0  0  0
 34 29  1  0  0  0
  1 35  1  0  0  0
  1 36  1  0  0  0
  1 37  1  0  0  0
  3 38  1  0  0  0
  4 39  1  0  0  0
  6 40  1  0  0  0
 10 41  1  0  0  0
 14 42  1  0  0  0
 15 43  1  0  0  0
 16 44  1  0  0  0
 17 45  1  0  0  0
 18 46  1  0  0  0
 24 47  1  0  0  0
 30 48  1  0  0  0
 30 49  1  0  0  0
 31 50  1  0  0  0
 31 51  1  0  0  0
 33 52  1  0  0  0
 33 53  1  0  0  0
 34 54  1  0  0  0
 34 55  1  0  0  0
M  END
> <pIC50>
6.002

$$$$
AT22
  DSViewer          3D                             0

 58 62  0  0  0  0  0  0  0  0999 V2000
   -0.1393    0.3145    1.7613 O   0  0
   -0.5144   -0.7327    1.1133 C   0  0
    0.4375   -1.6935    0.7742 N   0  0
    1.8230   -1.6275    1.0586 C   0  0
    2.5726   -2.8181    1.0364 C   0  0
    3.9211   -2.8182    1.2851 C   0  0
    4.5949   -1.6499    1.5668 C   0  0
    3.8943   -0.4776    1.5950 C   0  0
    4.7110    1.0267    1.9439 S   0  0
    5.9229    0.6858    2.7881 O   0  0
    3.8614    1.9696    2.7132 O   0  0
    5.2972    1.7871    0.5216 N   0  0
    4.2903    2.1467   -0.4213 C   0  0
    5.0035    2.7236   -1.6458 C   0  0
    5.8741    1.8310   -2.2295 O   0  0
    6.0447    0.6784   -1.4564 C   0  0
    6.4043    1.0939   -0.0693 C   0  0
    2.5372   -0.4860    1.3434 C   0  0
   -1.9407   -0.7787    0.8129 C   0  0
   -2.9651   -0.1848    1.5519 C   0  0
   -4.1498   -0.5032    1.0104 N   0  0
   -5.4376   -0.0661    1.5178 C   0  0
   -6.2102    0.7838    0.7879 C   0  0
   -7.4505    1.2314    1.2338 C   0  0
   -7.8801    0.7717    2.4730 C   0  0
   -7.1000   -0.0962    3.2275 C   0  0
   -5.8770   -0.5195    2.7556 C   0  0
   -3.9226   -1.2614   -0.0256 N   0  0
   -2.5712   -1.4537   -0.1822 C   0  0
   -2.0045   -2.2524   -1.2826 C   0  0
   -2.4549   -3.5146   -1.5639 C   0  0
   -1.9310   -4.2348   -2.6452 C   0  0
   -0.9548   -3.6359   -3.4106 C   0  0
   -0.5127   -2.3979   -3.1350 N   0  0
   -1.0297   -1.7084   -2.0818 C   0  0
    0.1039   -2.5624    0.2764 H   0  0
    2.0201   -3.7359    0.8122 H   0  0
    4.4386   -3.7847    1.2504 H   0  0
    5.6667   -1.7049    1.7575 H   0  0
    3.6954    3.0102   -0.0105 H   0  0
    3.6134    1.3335   -0.7001 H   0  0
    4.3010    3.0935   -2.4025 H   0  0
    5.6053    3.5934   -1.2855 H   0  0
    5.1157    0.0920   -1.5418 H   0  0
    6.8501    0.0574   -1.8945 H   0  0
    7.2487    1.8261   -0.1546 H   0  0
    6.7851    0.2643    0.5589 H   0  0
    1.9912    0.4786    1.3580 H   0  0
   -2.8101    0.4331    2.4235 H   0  0
   -5.8249    1.1114   -0.1741 H   0  0
   -8.0535    1.9077    0.6426 H   0  0
   -8.8192    1.0677    2.8860 H   0  0
   -7.4412   -0.4505    4.1935 H   0  0
   -5.2579   -1.2004    3.3403 H   0  0
   -3.2308   -3.9883   -0.9551 H   0  0
   -2.2581   -5.2243   -2.8964 H   0  0
   -0.5081   -4.1579   -4.2741 H   0  0
   -0.6892   -0.7059   -1.8374 H   0  0
  1  2  2  0  0  0
  2 19  1  0  0  0
  2  3  1  0  0  0
  3  4  1  0  0  0
  4  5  2  0  0  0
  5  6  1  0  0  0
  6  7  2  0  0  0
  7  8  1  0  0  0
  8 18  2  0  0  0
  8  9  1  0  0  0
  9 12  1  0  0  0
  9 11  2  0  0  0
  9 10  2  0  0  0
 12 13  1  0  0  0
 13 14  1  0  0  0
 14 15  1  0  0  0
 15 16  1  0  0  0
 16 17  1  0  0  0
 17 12  1  0  0  0
 18  4  1  0  0  0
 19 20  2  0  0  0
 20 21  1  0  0  0
 21 28  1  0  0  0
 21 22  1  0  0  0
 22 23  2  0  0  0
 23 24  1  0  0  0
 24 25  2  0  0  0
 25 26  1  0  0  0
 26 27  2  0  0  0
 27 22  1  0  0  0
 28 29  2  0  0  0
 29 30  1  0  0  0
 29 19  1  0  0  0
 30 31  2  0  0  0
 31 32  1  0  0  0
 32 33  2  0  0  0
 33 34  1  0  0  0
 34 35  2  0  0  0
 35 30  1  0  0  0
  3 36  1  0  0  0
  5 37  1  0  0  0
  6 38  1  0  0  0
  7 39  1  0  0  0
 13 40  1  0  0  0
 13 41  1  0  0  0
 14 42  1  0  0  0
 14 43  1  0  0  0
 16 44  1  0  0  0
 16 45  1  0  0  0
 17 46  1  0  0  0
 17 47  1  0  0  0
 18 48  1  0  0  0
 20 49  1  0  0  0
 23 50  1  0  0  0
 24 51  1  0  0  0
 25 52  1  0  0  0
 26 53  1  0  0  0
 27 54  1  0  0  0
 31 55  1  0  0  0
 32 56  1  0  0  0
 33 57  1  0  0  0
 35 58  1  0  0  0
M  END
> <pIC50>
5.886

$$$$
AT23
  DSViewer          3D                             0

 65 68  0  0  0  0  0  0  0  0999 V2000
   -0.6018   -4.6917   -4.5278 C   0  0
   -1.0638   -3.8092   -3.4215 C   0  0
   -0.5120   -2.5664   -3.2118 C   0  0
   -0.9609   -1.7532   -2.1663 C   0  0
   -1.9618   -2.1857   -1.3313 C   0  0
   -2.4892   -1.4264   -0.2095 C   0  0
   -3.8196   -1.2276    0.0249 N   0  0
   -4.0217   -0.5337    1.1041 N   0  0
   -5.3002   -0.1213    1.6777 C   0  0
   -6.0619    0.6891    0.6635 C   0  0
   -6.1320   -1.3284    2.0662 C   0  0
   -2.7851   -0.2576    1.6110 C   0  0
   -1.8039   -0.8079    0.8040 C   0  0
   -0.3556   -0.7481    1.0011 C   0  0
    0.0443   -0.0115    2.1983 N   0  0
    1.4309    0.1370    2.5321 C   0  0
    1.7348    0.8416    3.6687 C   0  0
    3.0695    0.9821    3.9861 C   0  0
    4.0873    0.4481    3.2137 C   0  0
    5.4861    0.6353    3.6094 C   0  0
    3.7748   -0.2591    2.0725 C   0  0
    5.0354   -0.9303    1.0998 S   0  0
    5.8092   -2.0024    1.8256 O   0  0
    4.4220   -1.5912   -0.1056 O   0  0
    6.1104    0.2957    0.4991 N   0  0
    5.3109    1.1804   -0.3289 C   0  0
    5.4544    0.7743   -1.7910 C   0  0
    6.7388    0.9948   -2.2702 O   0  0
    7.6869    0.7550   -1.3017 C   0  0
    7.1428   -0.2552   -0.3231 C   0  0
    2.4245   -0.4047    1.7460 C   0  0
   -2.4966   -3.4508   -1.5753 C   0  0
   -2.0692   -4.2673   -2.5993 C   0  0
    0.3349   -4.2401   -4.9487 H   0  0
   -0.4216   -5.7004   -4.1017 H   0  0
   -1.3516   -4.7066   -5.3276 H   0  0
    0.2663   -2.2421   -3.8687 H   0  0
   -0.5058   -0.7827   -2.0475 H   0  0
   -5.1129    0.4703    2.5879 H   0  0
   -5.3937    1.4879    0.2797 H   0  0
   -6.9764    1.1010    1.1487 H   0  0
   -6.3738   -0.0082   -0.1570 H   0  0
   -6.9653   -0.9656    2.7011 H   0  0
   -5.5136   -2.0356    2.6888 H   0  0
   -6.5248   -1.8238    1.1609 H   0  0
   -2.6793    0.3062    2.5033 H   0  0
    0.2082   -0.3676    0.1237 H   0  0
    0.0381   -1.7982    1.1416 H   0  0
   -0.7093    0.3909    2.7835 H   0  0
    0.9560    1.2776    4.3030 H   0  0
    3.3100    1.5384    4.8833 H   0  0
    5.5383    1.0836    4.6271 H   0  0
    6.0666   -0.3126    3.6656 H   0  0
    6.0144    1.3773    2.9433 H   0  0
    5.6476    2.2377   -0.2273 H   0  0
    4.2462    1.1225   -0.0758 H   0  0
    4.6950    1.3014   -2.4057 H   0  0
    5.2305   -0.3027   -1.8800 H   0  0
    7.9033    1.7206   -0.7961 H   0  0
    8.6572    0.4060   -1.7173 H   0  0
    8.0250   -0.6118    0.2836 H   0  0
    6.7878   -1.1448   -0.8676 H   0  0
    2.1865   -0.9590    0.8520 H   0  0
   -3.2869   -3.8179   -0.9336 H   0  0
   -2.5133   -5.2538   -2.7592 H   0  0
  1  2  1  0  0  0
  2  3  2  0  0  0
  3  4  1  0  0  0
  4  5  2  0  0  0
  5 32  1  0  0  0
  5  6  1  0  0  0
  6  7  2  0  0  0
  7  8  1  0  0  0
  8 12  1  0  0  0
  8  9  1  0  0  0
  9 11  1  0  0  0
  9 10  1  0  0  0
 12 13  2  0  0  0
 13 14  1  0  0  0
 13  6  1  0  0  0
 14 15  1  0  0  0
 15 16  1  0  0  0
 16 17  2  0  0  0
 17 18  1  0  0  0
 18 19  2  0  0  0
 19 21  1  0  0  0
 19 20  1  0  0  0
 21 31  2  0  0  0
 21 22  1  0  0  0
 22 25  1  0  0  0
 22 24  2  0  0  0
 22 23  2  0  0  0
 25 26  1  0  0  0
 26 27  1  0  0  0
 27 28  1  0  0  0
 28 29  1  0  0  0
 29 30  1  0  0  0
 30 25  1  0  0  0
 31 16  1  0  0  0
 32 33  2  0  0  0
 33  2  1  0  0  0
  1 34  1  0  0  0
  1 35  1  0  0  0
  1 36  1  0  0  0
  3 37  1  0  0  0
  4 38  1  0  0  0
  9 39  1  0  0  0
 10 40  1  0  0  0
 10 41  1  0  0  0
 10 42  1  0  0  0
 11 43  1  0  0  0
 11 44  1  0  0  0
 11 45  1  0  0  0
 12 46  1  0  0  0
 14 47  1  0  0  0
 14 48  1  0  0  0
 15 49  1  0  0  0
 17 50  1  0  0  0
 18 51  1  0  0  0
 20 52  1  0  0  0
 20 53  1  0  0  0
 20 54  1  0  0  0
 26 55  1  0  0  0
 26 56  1  0  0  0
 27 57  1  0  0  0
 27 58  1  0  0  0
 29 59  1  0  0  0
 29 60  1  0  0  0
 30 61  1  0  0  0
 30 62  1  0  0  0
 31 63  1  0  0  0
 32 64  1  0  0  0
 33 65  1  0  0  0
M  END
> <pIC50>
5.69

$$$$
AT24
  DSViewer          3D                             0

 69 72  0  0  0  0  0  0  0  0999 V2000
   -8.2344    0.8176   -2.5086 C   0  0
   -7.9240    2.0825   -1.9653 O   0  0
   -7.1319    2.1316   -0.8230 C   0  0
   -6.8196    3.3459   -0.2824 C   0  0
   -6.0365    3.4205    0.8492 C   0  0
   -5.5767    2.2460    1.4217 C   0  0
   -5.8722    1.0064    0.9033 C   0  0
   -5.3618   -0.1981    1.5482 C   0  0
   -4.0700   -0.6302    1.0330 N   0  0
   -2.8857   -0.2262    1.5293 C   0  0
   -1.8539   -0.8182    0.8226 C   0  0
   -0.3815   -0.6976    0.9864 C   0  0
   -0.0084    0.1797    2.0522 N   0  0
    1.3769    0.3441    2.3297 C   0  0
    1.8362    1.1983    3.3203 C   0  0
    3.1752    1.3570    3.5990 C   0  0
    4.1232    0.6571    2.8871 C   0  0
    5.5799    0.7881    3.1462 C   0  0
    3.6957   -0.2092    1.8854 C   0  0
    4.9088   -1.1004    0.9912 S   0  0
    5.6249   -2.1046    1.8208 O   0  0
    4.1808   -1.8774   -0.0971 O   0  0
    5.9961   -0.0432    0.1873 N   0  0
    5.3297    0.7922   -0.7812 C   0  0
    6.2643    1.8399   -1.2914 C   0  0
    7.5523    1.5967   -0.8419 O   0  0
    7.9553    0.2879   -1.1354 C   0  0
    7.1521   -0.7135   -0.3190 C   0  0
    2.3467   -0.3467    1.6296 C   0  0
   -2.4731   -1.6014   -0.1277 C   0  0
   -1.7915   -2.4431   -1.1476 C   0  0
   -0.9721   -1.6270   -2.1045 C   0  0
   -2.7759   -3.2890   -1.9163 C   0  0
   -3.7967   -1.4483    0.0476 N   0  0
   -6.6559    0.9553   -0.2273 C   0  0
   -7.2652    0.3393   -2.7709 H   0  0
   -8.8381    0.9880   -3.4373 H   0  0
   -8.8198    0.1658   -1.8598 H   0  0
   -7.1899    4.2550   -0.7456 H   0  0
   -5.8233    4.4087    1.2309 H   0  0
   -4.9671    2.3499    2.3067 H   0  0
   -5.2691   -0.0151    2.6370 H   0  0
   -6.1168   -1.0274    1.4618 H   0  0
   -2.7164    0.4644    2.3629 H   0  0
    0.0530   -1.7081    1.2286 H   0  0
    0.1080   -0.4150    0.0120 H   0  0
   -0.6792    0.7129    2.6474 H   0  0
    1.0966    1.7467    3.8782 H   0  0
    3.5327    2.0365    4.3856 H   0  0
    5.9799    1.5642    2.4616 H   0  0
    5.7684    1.0879    4.2177 H   0  0
    6.1275   -0.1461    2.9880 H   0  0
    4.3841    1.1967   -0.3850 H   0  0
    5.0831    0.1096   -1.6470 H   0  0
    6.3057    1.8432   -2.4068 H   0  0
    5.9873    2.8667   -0.9646 H   0  0
    7.7316    0.1186   -2.2018 H   0  0
    9.0271    0.1513   -0.9389 H   0  0
    6.9203   -1.5687   -0.9488 H   0  0
    7.7775   -1.0725    0.5424 H   0  0
    2.0320   -1.0384    0.8322 H   0  0
   -1.0974   -3.1303   -0.6235 H   0  0
   -1.2662   -0.5394   -2.1174 H   0  0
    0.1176   -1.7694   -1.9554 H   0  0
   -1.1818   -1.9876   -3.1321 H   0  0
   -3.6520   -2.7315   -2.2612 H   0  0
   -3.1660   -4.1227   -1.2637 H   0  0
   -2.2724   -3.6999   -2.8182 H   0  0
   -6.9322    0.0331   -0.6938 H   0  0
  1  2  1  0  0  0
  2  3  1  0  0  0
  3  4  2  0  0  0
  4  5  1  0  0  0
  5  6  2  0  0  0
  6  7  1  0  0  0
  7 35  2  0  0  0
  7  8  1  0  0  0
  8  9  1  0  0  0
  9 10  1  0  0  0
 10 11  2  0  0  0
 11 30  1  0  0  0
 11 12  1  0  0  0
 12 13  1  0  0  0
 13 14  1  0  0  0
 14 15  2  0  0  0
 15 16  1  0  0  0
 16 17  2  0  0  0
 17 19  1  0  0  0
 17 18  1  0  0  0
 19 29  2  0  0  0
 19 20  1  0  0  0
 20 23  1  0  0  0
 20 22  2  0  0  0
 20 21  2  0  0  0
 23 24  1  0  0  0
 24 25  1  0  0  0
 25 26  1  0  0  0
 26 27  1  0  0  0
 27 28  1  0  0  0
 28 23  1  0  0  0
 29 14  1  0  0  0
 30 34  2  0  0  0
 30 31  1  0  0  0
 31 33  1  0  0  0
 31 32  1  0  0  0
 34  9  1  0  0  0
 35  3  1  0  0  0
  1 36  1  0  0  0
  1 37  1  0  0  0
  1 38  1  0  0  0
  4 39  1  0  0  0
  5 40  1  0  0  0
  6 41  1  0  0  0
  8 42  1  0  0  0
  8 43  1  0  0  0
 10 44  1  0  0  0
 12 45  1  0  0  0
 12 46  1  0  0  0
 13 47  1  0  0  0
 15 48  1  0  0  0
 16 49  1  0  0  0
 18 50  1  0  0  0
 18 51  1  0  0  0
 18 52  1  0  0  0
 24 53  1  0  0  0
 24 54  1  0  0  0
 25 55  1  0  0  0
 25 56  1  0  0  0
 27 57  1  0  0  0
 27 58  1  0  0  0
 28 59  1  0  0  0
 28 60  1  0  0  0
 29 61  1  0  0  0
 31 62  1  0  0  0
 32 63  1  0  0  0
 32 64  1  0  0  0
 32 65  1  0  0  0
 33 66  1  0  0  0
 33 67  1  0  0  0
 33 68  1  0  0  0
 35 69  1  0  0  0
M  END
> <pIC50>
5.636

$$$$
AT25
  DSViewer          3D                             0

 58 61  0  0  0  0  0  0  0  0999 V2000
    5.9404   -1.9466    1.7810 C   0  0
    4.4739   -1.8638    1.4993 C   0  0
    3.7471   -3.0189    1.1862 C   0  0
    2.4109   -2.9138    0.9340 C   0  0
    1.7680   -1.6693    0.9860 C   0  0
    0.3792   -1.6669    0.6886 N   0  0
   -0.5586   -0.6609    1.0092 C   0  0
   -0.0655    0.3423    1.6459 O   0  0
   -1.9663   -0.6813    0.6859 C   0  0
   -2.7452   -1.5887    0.0361 C   0  0
   -2.3058   -2.8796   -0.5450 C   0  0
   -4.0249   -1.1115    0.0028 N   0  0
   -4.0570    0.0415    0.6018 N   0  0
   -5.2604    0.8314    0.7498 C   0  0
   -6.0490    1.1114   -0.3362 C   0  0
   -7.1890    1.8586   -0.2011 C   0  0
   -7.5665    2.3473    1.0439 C   0  0
   -6.7712    2.0662    2.1457 C   0  0
   -5.6330    1.3142    1.9812 C   0  0
   -2.8325    0.3723    1.0474 C   0  0
   -2.4676    1.6065    1.7770 C   0  0
    2.5168   -0.5576    1.2965 C   0  0
    3.8908   -0.6396    1.5599 C   0  0
    4.7637    0.7829    1.9411 S   0  0
    5.3489    0.7082    3.3261 O   0  0
    3.8406    1.9673    1.9337 O   0  0
    6.0422    1.1294    0.8448 N   0  0
    5.4941    1.3416   -0.5041 C   0  0
    6.2528    2.4684   -1.1957 C   0  0
    7.6229    2.3636   -0.9625 O   0  0
    7.9235    2.5326    0.3894 C   0  0
    6.6745    2.3813    1.2174 C   0  0
    6.5522   -1.6925    0.8952 H   0  0
    6.2124   -1.3669    2.6864 H   0  0
    6.1540   -3.0084    2.0230 H   0  0
    4.2481   -3.9898    1.1456 H   0  0
    1.8774   -3.8233    0.6957 H   0  0
    0.0224   -2.5174    0.1639 H   0  0
   -3.2474   -3.3452   -0.9997 H   0  0
   -1.9877   -3.6280    0.1975 H   0  0
   -1.6288   -2.7678   -1.4145 H   0  0
   -5.7649    0.7378   -1.3022 H   0  0
   -7.8129    2.0756   -1.0825 H   0  0
   -8.4667    2.9425    1.1764 H   0  0
   -7.0573    2.4446    3.1294 H   0  0
   -4.9976    1.0865    2.8454 H   0  0
   -2.3491    1.4038    2.8775 H   0  0
   -1.5678    2.1087    1.3578 H   0  0
   -3.2952    2.3262    1.6918 H   0  0
    2.0580    0.4232    1.3326 H   0  0
    4.4569    1.7013   -0.3632 H   0  0
    5.5589    0.4365   -1.1151 H   0  0
    5.8475    3.4622   -0.9093 H   0  0
    6.0974    2.3731   -2.2872 H   0  0
    8.4394    3.5001    0.5776 H   0  0
    8.6227    1.7165    0.6656 H   0  0
    7.0088    2.3321    2.2943 H   0  0
    5.9946    3.2437    1.1327 H   0  0
  1  2  1  0  0  0
  2  3  2  0  0  0
  3  4  1  0  0  0
  4  5  2  0  0  0
  5 22  1  0  0  0
  5  6  1  0  0  0
  6  7  1  0  0  0
  7  9  1  0  0  0
  7  8  2  0  0  0
  9 10  1  0  0  0
 10 12  2  0  0  0
 10 11  1  0  0  0
 12 13  1  0  0  0
 13 20  1  0  0  0
 13 14  1  0  0  0
 14 15  2  0  0  0
 15 16  1  0  0  0
 16 17  2  0  0  0
 17 18  1  0  0  0
 18 19  2  0  0  0
 19 14  1  0  0  0
 20 21  1  0  0  0
 20  9  2  0  0  0
 22 23  2  0  0  0
 23 24  1  0  0  0
 23  2  1  0  0  0
 24 27  1  0  0  0
 24 26  2  0  0  0
 24 25  2  0  0  0
 27 28  1  0  0  0
 28 29  1  0  0  0
 29 30  1  0  0  0
 30 31  1  0  0  0
 31 32  1  0  0  0
 32 27  1  0  0  0
  1 33  1  0  0  0
  1 34  1  0  0  0
  1 35  1  0  0  0
  3 36  1  0  0  0
  4 37  1  0  0  0
  6 38  1  0  0  0
 11 39  1  0  0  0
 11 40  1  0  0  0
 11 41  1  0  0  0
 15 42  1  0  0  0
 16 43  1  0  0  0
 17 44  1  0  0  0
 18 45  1  0  0  0
 19 46  1  0  0  0
 21 47  1  0  0  0
 21 48  1  0  0  0
 21 49  1  0  0  0
 22 50  1  0  0  0
 28 51  1  0  0  0
 28 52  1  0  0  0
 29 53  1  0  0  0
 29 54  1  0  0  0
 31 55  1  0  0  0
 31 56  1  0  0  0
 32 57  1  0  0  0
 32 58  1  0  0  0
M  END
> <pIC50>
5.481

$$$$
AT26
  DSViewer          3D                             0

 61 63  0  0  0  0  0  0  0  0999 V2000
   -2.3294   -4.0408   -3.3110 C   0  0
   -3.2595   -4.3034   -2.3278 O   0  0
   -3.5522   -3.2315   -1.5509 C   0  0
   -2.3172   -2.7118   -0.8155 C   0  0
   -2.7375   -1.5624    0.0145 C   0  0
   -4.0182   -1.1402    0.1283 N   0  0
   -4.1024   -0.1066    0.9191 N   0  0
   -5.3202    0.6083    1.2725 C   0  0
   -5.8554    0.1270    2.5839 C   0  0
   -6.3354    0.3319    0.1853 C   0  0
   -2.8667    0.1804    1.3499 C   0  0
   -1.9628   -0.7401    0.7850 C   0  0
   -0.5459   -0.7043    1.0610 C   0  0
   -0.0830    0.2890    1.7215 O   0  0
    0.3749   -1.6729    0.6656 N   0  0
    1.7792   -1.6721    0.9075 C   0  0
    2.5093   -2.8656    0.7666 C   0  0
    3.8671   -2.8898    0.9753 C   0  0
    4.5777   -1.7614    1.3294 C   0  0
    6.0254   -1.9288    1.5334 C   0  0
    3.9007   -0.5899    1.4733 C   0  0
    4.7412    0.8527    1.9029 S   0  0
    5.2674    0.7874    3.3402 O   0  0
    3.7033    1.9733    1.9930 O   0  0
    5.9147    1.4041    0.8320 N   0  0
    7.2358    1.3864    1.3403 C   0  0
    8.1579    2.1476    0.4124 C   0  0
    8.0355    1.8375   -0.9069 O   0  0
    7.0913    0.9259   -1.2649 C   0  0
    5.7765    1.0216   -0.5302 C   0  0
    2.5058   -0.5851    1.2544 C   0  0
   -2.6981   -3.2149   -3.9844 H   0  0
   -2.2812   -4.9302   -3.9947 H   0  0
   -1.3530   -3.8187   -2.8871 H   0  0
   -4.3092   -3.4662   -0.7904 H   0  0
   -3.9580   -2.3887   -2.1610 H   0  0
   -1.9941   -3.5460   -0.1695 H   0  0
   -1.5563   -2.3932   -1.5405 H   0  0
   -5.0904    1.6953    1.2686 H   0  0
   -5.7999   -0.9900    2.5717 H   0  0
   -6.9377    0.3917    2.6834 H   0  0
   -5.3414    0.5622    3.4533 H   0  0
   -6.1355    0.9952   -0.6739 H   0  0
   -6.1847   -0.7131   -0.1543 H   0  0
   -7.3365    0.4892    0.6409 H   0  0
   -2.6376    0.9960    2.0232 H   0  0
    0.0149   -2.5268    0.1191 H   0  0
    1.9451   -3.7451    0.4898 H   0  0
    4.3871   -3.8540    0.8502 H   0  0
    6.4194   -1.4507    2.4304 H   0  0
    6.5478   -1.5046    0.6536 H   0  0
    6.3285   -2.9945    1.5854 H   0  0
    7.6504    0.4154    1.5860 H   0  0
    7.2315    1.9779    2.3023 H   0  0
    8.0102    3.2388    0.5404 H   0  0
    9.1970    1.9227    0.7409 H   0  0
    7.5042   -0.0978   -1.0490 H   0  0
    6.8561    0.9213   -2.3443 H   0  0
    5.2233    0.0909   -0.6454 H   0  0
    5.1846    1.8172   -1.0545 H   0  0
    2.0283    0.3836    1.3720 H   0  0
  1  2  1  0  0  0
  2  3  1  0  0  0
  3  4  1  0  0  0
  4  5  1  0  0  0
  5  6  2  0  0  0
  6  7  1  0  0  0
  7 11  1  0  0  0
  7  8  1  0  0  0
  8 10  1  0  0  0
  8  9  1  0  0  0
 11 12  2  0  0  0
 12 13  1  0  0  0
 12  5  1  0  0  0
 13 15  1  0  0  0
 13 14  2  0  0  0
 15 16  1  0  0  0
 16 17  2  0  0  0
 17 18  1  0  0  0
 18 19  2  0  0  0
 19 21  1  0  0  0
 19 20  1  0  0  0
 21 31  2  0  0  0
 21 22  1  0  0  0
 22 25  1  0  0  0
 22 24  2  0  0  0
 22 23  2  0  0  0
 25 26  1  0  0  0
 26 27  1  0  0  0
 27 28  1  0  0  0
 28 29  1  0  0  0
 29 30  1  0  0  0
 30 25  1  0  0  0
 31 16  1  0  0  0
  1 32  1  0  0  0
  1 33  1  0  0  0
  1 34  1  0  0  0
  3 35  1  0  0  0
  3 36  1  0  0  0
  4 37  1  0  0  0
  4 38  1  0  0  0
  8 39  1  0  0  0
  9 40  1  0  0  0
  9 41  1  0  0  0
  9 42  1  0  0  0
 10 43  1  0  0  0
 10 44  1  0  0  0
 10 45  1  0  0  0
 11 46  1  0  0  0
 15 47  1  0  0  0
 17 48  1  0  0  0
 18 49  1  0  0  0
 20 50  1  0  0  0
 20 51  1  0  0  0
 20 52  1  0  0  0
 26 53  1  0  0  0
 26 54  1  0  0  0
 27 55  1  0  0  0
 27 56  1  0  0  0
 29 57  1  0  0  0
 29 58  1  0  0  0
 30 59  1  0  0  0
 30 60  1  0  0  0
 31 61  1  0  0  0
M  END
> <pIC50>
5.466

$$$$
AT27
  DSViewer          3D                             0

 76 80  0  0  0  0  0  0  0  0999 V2000
   -6.3082    5.9359    1.4710 C   0  0
   -5.8516    4.6645    1.8783 O   0  0
   -6.0733    3.4949    1.1642 C   0  0
   -6.7757    3.4713   -0.0319 C   0  0
   -6.9710    2.2676   -0.7091 C   0  0
   -6.4932    1.0625   -0.2491 C   0  0
   -5.7935    1.0830    0.9418 C   0  0
   -5.2554   -0.1701    1.5037 C   0  0
   -4.0051   -0.5804    0.9195 N   0  0
   -2.7891   -0.2116    1.3420 C   0  0
   -1.8260   -0.8141    0.5310 C   0  0
   -0.3915   -0.7290    0.5463 C   0  0
    0.1943    0.1862   -0.0598 O   0  0
    0.3798   -1.6852    1.2446 N   0  0
   -0.2367   -2.7363    2.0042 C   0  0
    1.8087   -1.6576    1.2201 C   0  0
    2.5183   -2.7525    0.8030 C   0  0
    3.8859   -2.6639    0.7749 C   0  0
    4.6004   -1.5156    1.1500 C   0  0
    6.1016   -1.5395    1.0157 C   0  0
    3.8891   -0.4291    1.5674 C   0  0
    4.6064    1.0406    2.1078 S   0  0
    3.5713    2.1584    2.1410 O   0  0
    5.6230    1.4863    1.0572 O   0  0
    5.4162    0.9162    3.5764 N   0  0
    6.5189    0.0708    3.7153 C   0  0
    7.3345    0.3993    4.9807 C   0  0
    6.5119    0.6428    6.0525 O   0  0
    5.2189    0.1642    5.8558 C   0  0
    4.5516    0.8857    4.7208 C   0  0
    2.4782   -0.5289    1.5918 C   0  0
   -2.5277   -1.5552   -0.3860 C   0  0
   -2.0713   -2.4067   -1.4472 C   0  0
   -1.1165   -2.0295   -2.3573 C   0  0
   -0.7122   -2.9243   -3.3463 C   0  0
   -1.2276   -4.1926   -3.4663 C   0  0
   -2.1873   -4.5753   -2.5558 C   0  0
   -2.7255   -5.8406   -2.6469 O   0  0
   -2.3244   -6.7494   -3.6431 C   0  0
   -2.5964   -3.7067   -1.5752 C   0  0
   -3.8516   -1.3722   -0.0975 N   0  0
   -5.5963    2.2752    1.6189 C   0  0
   -5.5020    6.4126    0.8425 H   0  0
   -7.2151    5.9262    0.8632 H   0  0
   -6.4186    6.5912    2.3771 H   0  0
   -7.1654    4.3813   -0.4367 H   0  0
   -7.5229    2.2568   -1.6520 H   0  0
   -6.6833    0.1649   -0.8291 H   0  0
   -5.1922   -0.0339    2.6229 H   0  0
   -6.0527   -0.9502    1.3862 H   0  0
   -2.4942    0.4359    2.1562 H   0  0
    0.4732   -3.2086    2.7184 H   0  0
   -0.5524   -3.5336    1.3015 H   0  0
   -1.0544   -2.3310    2.6091 H   0  0
    2.0249   -3.6784    0.4982 H   0  0
    4.4765   -3.5084    0.4520 H   0  0
    6.5887   -2.1406    1.7830 H   0  0
    6.5202   -0.5636    0.7891 H   0  0
    6.2673   -2.1364    0.0534 H   0  0
    6.2337   -0.9932    3.8080 H   0  0
    7.2822    0.1701    2.8976 H   0  0
    8.0438    1.2209    4.7946 H   0  0
    7.9289   -0.5126    5.1994 H   0  0
    4.6210    0.2224    6.7936 H   0  0
    5.3034   -0.9061    5.5836 H   0  0
    3.6391    0.3198    4.4224 H   0  0
    4.2360    1.9227    5.0293 H   0  0
    1.9466    0.3745    1.9348 H   0  0
   -0.7060   -1.0358   -2.2867 H   0  0
    0.0545   -2.5932   -4.0569 H   0  0
   -0.8818   -4.8623   -4.2537 H   0  0
   -2.5445   -6.4066   -4.6747 H   0  0
   -1.2060   -6.9104   -3.6283 H   0  0
   -2.7714   -7.7601   -3.4694 H   0  0
   -3.3654   -4.0371   -0.8584 H   0  0
   -5.0468    2.3334    2.5691 H   0  0
  1  2  1  0  0  0
  2  3  1  0  0  0
  3  4  2  0  0  0
  4  5  1  0  0  0
  5  6  2  0  0  0
  6  7  1  0  0  0
  7 42  2  0  0  0
  7  8  1  0  0  0
  8  9  1  0  0  0
  9 10  1  0  0  0
 10 11  2  0  0  0
 11 32  1  0  0  0
 11 12  1  0  0  0
 12 14  1  0  0  0
 12 13  2  0  0  0
 14 16  1  0  0  0
 14 15  1  0  0  0
 16 17  2  0  0  0
 17 18  1  0  0  0
 18 19  2  0  0  0
 19 21  1  0  0  0
 19 20  1  0  0  0
 21 31  2  0  0  0
 21 22  1  0  0  0
 22 25  1  0  0  0
 22 24  2  0  0  0
 22 23  2  0  0  0
 25 26  1  0  0  0
 26 27  1  0  0  0
 27 28  1  0  0  0
 28 29  1  0  0  0
 29 30  1  0  0  0
 30 25  1  0  0  0
 31 16  1  0  0  0
 32 41  2  0  0  0
 32 33  1  0  0  0
 33 34  2  0  0  0
 34 35  1  0  0  0
 35 36  2  0  0  0
 36 37  1  0  0  0
 37 40  2  0  0  0
 37 38  1  0  0  0
 38 39  1  0  0  0
 40 33  1  0  0  0
 41  9  1  0  0  0
 42  3  1  0  0  0
  1 43  1  0  0  0
  1 44  1  0  0  0
  1 45  1  0  0  0
  4 46  1  0  0  0
  5 47  1  0  0  0
  6 48  1  0  0  0
  8 49  1  0  0  0
  8 50  1  0  0  0
 10 51  1  0  0  0
 15 52  1  0  0  0
 15 53  1  0  0  0
 15 54  1  0  0  0
 17 55  1  0  0  0
 18 56  1  0  0  0
 20 57  1  0  0  0
 20 58  1  0  0  0
 20 59  1  0  0  0
 26 60  1  0  0  0
 26 61  1  0  0  0
 27 62  1  0  0  0
 27 63  1  0  0  0
 29 64  1  0  0  0
 29 65  1  0  0  0
 30 66  1  0  0  0
 30 67  1  0  0  0
 31 68  1  0  0  0
 34 69  1  0  0  0
 35 70  1  0  0  0
 36 71  1  0  0  0
 39 72  1  0  0  0
 39 73  1  0  0  0
 39 74  1  0  0  0
 40 75  1  0  0  0
 42 76  1  0  0  0
M  END
> <pIC50>
5.419

$$$$
AT28
  DSViewer          3D                             0

 71 74  0  0  0  0  0  0  0  0999 V2000
   -4.8290    4.5380    3.2192 C   0  0
   -5.5273    4.5099    2.0302 O   0  0
   -5.7919    3.3653    1.3229 C   0  0
   -6.5174    3.5124    0.1306 C   0  0
   -6.8200    2.4304   -0.6247 C   0  0
   -6.4116    1.1810   -0.2172 C   0  0
   -5.7011    0.9778    0.9367 C   0  0
   -5.2662   -0.3555    1.3810 C   0  0
   -3.9908   -0.6807    0.7805 N   0  0
   -2.7516   -0.4409    1.2283 C   0  0
   -1.8243   -0.9337    0.3235 C   0  0
   -0.3821   -0.8518    0.4892 C   0  0
    0.1837    0.1572    0.0050 O   0  0
    0.3718   -1.8489    1.1607 N   0  0
   -0.3690   -3.0009    1.6930 C   0  0
    1.7776   -1.7785    1.3333 C   0  0
    2.5733   -2.9144    1.2991 C   0  0
    3.9377   -2.8482    1.4679 C   0  0
    4.5813   -1.6316    1.6813 C   0  0
    6.0516   -1.5900    1.8788 C   0  0
    3.8216   -0.4922    1.7195 C   0  0
    4.5836    1.0505    1.9572 S   0  0
    3.4747    2.0951    2.0248 O   0  0
    5.2244    1.1215    3.3417 O   0  0
    5.6574    1.5388    0.7610 N   0  0
    7.0151    1.6971    1.0680 C   0  0
    7.9543    1.5642   -0.1069 C   0  0
    7.4786    0.5482   -0.9275 O   0  0
    6.3283    0.9808   -1.5364 C   0  0
    5.2498    1.4172   -0.5783 C   0  0
    2.4292   -0.5889    1.5444 C   0  0
   -2.5682   -1.4832   -0.6941 C   0  0
   -2.0449   -2.1347   -1.8961 C   0  0
   -1.1677   -3.3382   -1.6098 C   0  0
   -3.2065   -2.6043   -2.7771 C   0  0
   -3.8880   -1.3130   -0.3860 N   0  0
   -5.3942    2.1035    1.7091 C   0  0
   -5.4008    5.1599    3.9698 H   0  0
   -4.5553    3.5979    3.6847 H   0  0
   -3.8697    5.1038    3.0181 H   0  0
   -6.8397    4.4935   -0.1927 H   0  0
   -7.3830    2.4775   -1.5656 H   0  0
   -6.6528    0.3161   -0.8198 H   0  0
   -5.1245   -0.3180    2.5011 H   0  0
   -6.0184   -1.1508    1.1959 H   0  0
   -2.4997    0.0628    2.1605 H   0  0
   -0.0302   -3.2003    2.7464 H   0  0
   -0.0449   -3.8727    1.0954 H   0  0
   -1.4451   -2.8691    1.6004 H   0  0
    2.0508   -3.8578    1.1303 H   0  0
    4.5355   -3.7374    1.4384 H   0  0
    6.4441   -2.6228    2.0645 H   0  0
    6.5025   -1.1488    0.9731 H   0  0
    6.3479   -0.9780    2.7403 H   0  0
    7.2300    2.7044    1.5222 H   0  0
    7.3359    0.9747    1.8388 H   0  0
    8.9813    1.3261    0.2344 H   0  0
    7.9396    2.5007   -0.7349 H   0  0
    5.9618    0.1938   -2.2576 H   0  0
    6.5952    1.8478   -2.1975 H   0  0
    4.8129    2.4048   -0.9071 H   0  0
    4.4077    0.6924   -0.6767 H   0  0
    1.8739    0.3365    1.5853 H   0  0
   -1.4515   -1.4351   -2.5099 H   0  0
   -1.1028   -3.9126   -2.5747 H   0  0
   -0.1593   -2.9442   -1.3593 H   0  0
   -1.5344   -3.9472   -0.7856 H   0  0
   -3.9346   -3.2002   -2.1867 H   0  0
   -3.6809   -1.6966   -3.1718 H   0  0
   -2.7945   -3.1951   -3.6109 H   0  0
   -4.8315    1.9538    2.6240 H   0  0
  1  2  1  0  0  0
  2  3  1  0  0  0
  3  4  2  0  0  0
  4  5  1  0  0  0
  5  6  2  0  0  0
  6  7  1  0  0  0
  7 37  2  0  0  0
  7  8  1  0  0  0
  8  9  1  0  0  0
  9 10  1  0  0  0
 10 11  2  0  0  0
 11 32  1  0  0  0
 11 12  1  0  0  0
 12 14  1  0  0  0
 12 13  2  0  0  0
 14 16  1  0  0  0
 14 15  1  0  0  0
 16 17  2  0  0  0
 17 18  1  0  0  0
 18 19  2  0  0  0
 19 21  1  0  0  0
 19 20  1  0  0  0
 21 31  2  0  0  0
 21 22  1  0  0  0
 22 25  1  0  0  0
 22 24  2  0  0  0
 22 23  2  0  0  0
 25 26  1  0  0  0
 26 27  1  0  0  0
 27 28  1  0  0  0
 28 29  1  0  0  0
 29 30  1  0  0  0
 30 25  1  0  0  0
 31 16  1  0  0  0
 32 36  2  0  0  0
 32 33  1  0  0  0
 33 35  1  0  0  0
 33 34  1  0  0  0
 36  9  1  0  0  0
 37  3  1  0  0  0
  1 38  1  0  0  0
  1 39  1  0  0  0
  1 40  1  0  0  0
  4 41  1  0  0  0
  5 42  1  0  0  0
  6 43  1  0  0  0
  8 44  1  0  0  0
  8 45  1  0  0  0
 10 46  1  0  0  0
 15 47  1  0  0  0
 15 48  1  0  0  0
 15 49  1  0  0  0
 17 50  1  0  0  0
 18 51  1  0  0  0
 20 52  1  0  0  0
 20 53  1  0  0  0
 20 54  1  0  0  0
 26 55  1  0  0  0
 26 56  1  0  0  0
 27 57  1  0  0  0
 27 58  1  0  0  0
 29 59  1  0  0  0
 29 60  1  0  0  0
 30 61  1  0  0  0
 30 62  1  0  0  0
 31 63  1  0  0  0
 33 64  1  0  0  0
 34 65  1  0  0  0
 34 66  1  0  0  0
 34 67  1  0  0  0
 35 68  1  0  0  0
 35 69  1  0  0  0
 35 70  1  0  0  0
 37 71  1  0  0  0
M  END
> <pIC50>
5.273

$$$$
AT29
  DSViewer          3D                             0

 55 58  0  0  0  0  0  0  0  0999 V2000
   -8.0930   -0.7701   -2.6358 C   0  0
   -7.1154   -1.6707   -1.9782 C   0  0
   -7.2384   -3.0369   -2.0390 C   0  0
   -6.2984   -3.8346   -1.4092 C   0  0
   -5.2391   -3.2938   -0.7203 C   0  0
   -5.1158   -1.9348   -0.6592 C   0  0
   -4.0298   -1.3067    0.0408 N   0  0
   -4.1240   -0.3180    0.8921 N   0  0
   -2.9319    0.0479    1.3660 C   0  0
   -1.9904   -0.7936    0.7534 C   0  0
   -0.5553   -0.7074    1.0445 C   0  0
   -0.1576    0.3560    1.6083 O   0  0
    0.4151   -1.6692    0.7684 N   0  0
    1.8031   -1.6191    1.0165 C   0  0
    2.5391   -2.7998    0.9308 C   0  0
    3.8908   -2.8677    1.1314 C   0  0
    4.5909   -1.7301    1.4352 C   0  0
    3.9028   -0.5483    1.5286 C   0  0
    4.8005    0.9093    1.9092 S   0  0
    5.9978    0.5371    2.7349 O   0  0
    3.9669    1.8539    2.7228 O   0  0
    5.3175    1.6947    0.4622 N   0  0
    6.1940    0.8958   -0.3331 C   0  0
    7.6468    1.0339    0.0712 C   0  0
    8.0089    2.3570    0.1890 O   0  0
    7.2405    2.9250    1.2002 C   0  0
    5.8169    3.0048    0.7286 C   0  0
    2.5124   -0.4906    1.3202 C   0  0
   -2.7168   -1.6062   -0.0504 C   0  0
   -2.1750   -2.6744   -0.9408 C   0  0
   -6.0576   -1.1282   -1.2905 C   0  0
   -8.8179   -1.2998   -3.2576 H   0  0
   -7.4731   -0.0445   -3.2331 H   0  0
   -8.5768   -0.1396   -1.8403 H   0  0
   -8.0808   -3.4544   -2.5871 H   0  0
   -6.4280   -4.9254   -1.4787 H   0  0
   -4.4924   -3.9354   -0.2193 H   0  0
   -2.7119    0.8480    2.0941 H   0  0
    0.0537   -2.5648    0.3171 H   0  0
    2.0298   -3.7339    0.6940 H   0  0
    4.4490   -3.8108    1.0598 H   0  0
    5.6641   -1.7814    1.5954 H   0  0
    5.9256   -0.1779   -0.2629 H   0  0
    6.1311    1.2262   -1.3883 H   0  0
    7.8607    0.5325    1.0370 H   0  0
    8.2557    0.5148   -0.7137 H   0  0
    7.6700    3.9334    1.4143 H   0  0
    7.3396    2.3634    2.1651 H   0  0
    5.8159    3.6253   -0.1912 H   0  0
    5.1460    3.4698    1.4903 H   0  0
    2.0273    0.4554    1.3977 H   0  0
   -2.9483   -2.9157   -1.7469 H   0  0
   -1.8963   -3.5988   -0.4085 H   0  0
   -1.3070   -2.3382   -1.5361 H   0  0
   -5.9577   -0.0311   -1.2406 H   0  0
  1  2  1  0  0  0
  2  3  2  0  0  0
  3  4  1  0  0  0
  4  5  2  0  0  0
  5  6  1  0  0  0
  6 31  2  0  0  0
  6  7  1  0  0  0
  7  8  1  0  0  0
  8  9  2  0  0  0
  9 10  1  0  0  0
 10 29  2  0  0  0
 10 11  1  0  0  0
 11 13  1  0  0  0
 11 12  2  0  0  0
 13 14  1  0  0  0
 14 15  2  0  0  0
 15 16  1  0  0  0
 16 17  2  0  0  0
 17 18  1  0  0  0
 18 28  2  0  0  0
 18 19  1  0  0  0
 19 22  1  0  0  0
 19 21  2  0  0  0
 19 20  2  0  0  0
 22 23  1  0  0  0
 23 24  1  0  0  0
 24 25  1  0  0  0
 25 26  1  0  0  0
 26 27  1  0  0  0
 27 22  1  0  0  0
 28 14  1  0  0  0
 29 30  1  0  0  0
 29  7  1  0  0  0
 31  2  1  0  0  0
  1 32  1  0  0  0
  1 33  1  0  0  0
  1 34  1  0  0  0
  3 35  1  0  0  0
  4 36  1  0  0  0
  5 37  1  0  0  0
  9 38  1  0  0  0
 13 39  1  0  0  0
 15 40  1  0  0  0
 16 41  1  0  0  0
 17 42  1  0  0  0
 23 43  1  0  0  0
 23 44  1  0  0  0
 24 45  1  0  0  0
 24 46  1  0  0  0
 26 47  1  0  0  0
 26 48  1  0  0  0
 27 49  1  0  0  0
 27 50  1  0  0  0
 28 51  1  0  0  0
 30 52  1  0  0  0
 30 53  1  0  0  0
 30 54  1  0  0  0
 31 55  1  0  0  0
M  END
> <pIC50>
5.18

$$$$
AT30
  DSViewer          3D                             0

 49 52  0  0  0  0  0  0  0  0999 V2000
   -0.1284    0.5471    1.5378 O   0  0
   -0.5477   -0.5337    1.0899 C   0  0
    0.3443   -1.6009    0.8427 N   0  0
    1.7257   -1.5727    1.0553 C   0  0
    2.4232   -2.7804    0.9293 C   0  0
    3.7821   -2.8941    1.1022 C   0  0
    4.5097   -1.7839    1.4137 C   0  0
    5.8659   -1.8328    1.6042 F   0  0
    3.8768   -0.5742    1.5490 C   0  0
    4.8148    0.8726    1.9448 S   0  0
    5.4058    0.6341    3.3070 O   0  0
    3.8067    1.9952    2.1337 O   0  0
    5.9456    1.2093    0.7623 N   0  0
    5.5270    1.4906   -0.5461 C   0  0
    6.6940    1.9364   -1.4007 C   0  0
    7.6723    2.5771   -0.6829 O   0  0
    8.2675    1.8333    0.3143 C   0  0
    7.2881    0.8375    0.9344 C   0  0
    2.4876   -0.4776    1.3685 C   0  0
   -1.9997   -0.7168    0.8077 C   0  0
   -2.6187   -1.8405    0.3129 C   0  0
   -3.9307   -1.5859    0.2085 N   0  0
   -4.1662   -0.3348    0.6214 N   0  0
   -5.4273    0.3212    0.6683 C   0  0
   -6.3293   -0.0151    1.6359 C   0  0
   -7.5513    0.6364    1.6630 C   0  0
   -7.8776    1.6112    0.7417 C   0  0
   -6.9765    1.9530   -0.2319 C   0  0
   -5.7634    1.3067   -0.2593 C   0  0
   -2.9955    0.2122    0.9919 C   0  0
   -0.0627   -2.5132    0.4560 H   0  0
    1.9123   -3.7136    0.6822 H   0  0
    4.2908   -3.8459    0.9970 H   0  0
    4.9742    0.6470   -1.0087 H   0  0
    4.7963    2.3383   -0.5138 H   0  0
    6.3014    2.6537   -2.1484 H   0  0
    7.1112    1.0856   -1.9824 H   0  0
    8.5628    2.5265    1.1288 H   0  0
    9.2048    1.3216   -0.0142 H   0  0
    7.5383    0.5903    1.9646 H   0  0
    7.4676   -0.1073    0.3372 H   0  0
    2.0270    0.4889    1.4765 H   0  0
   -2.0627   -2.7452    0.0718 H   0  0
   -6.1584   -0.7598    2.3901 H   0  0
   -8.2680    0.3891    2.4089 H   0  0
   -8.8485    2.0988    0.7980 H   0  0
   -7.1999    2.7019   -0.9573 H   0  0
   -5.0341    1.5443   -1.0019 H   0  0
   -2.9017    1.2195    1.3667 H   0  0
  1  2  2  0  0  0
  2 20  1  0  0  0
  2  3  1  0  0  0
  3  4  1  0  0  0
  4  5  2  0  0  0
  5  6  1  0  0  0
  6  7  2  0  0  0
  7  9  1  0  0  0
  7  8  1  0  0  0
  9 19  2  0  0  0
  9 10  1  0  0  0
 10 13  1  0  0  0
 10 12  2  0  0  0
 10 11  2  0  0  0
 13 14  1  0  0  0
 14 15  1  0  0  0
 15 16  1  0  0  0
 16 17  1  0  0  0
 17 18  1  0  0  0
 18 13  1  0  0  0
 19  4  1  0  0  0
 20 21  1  0  0  0
 21 22  2  0  0  0
 22 23  1  0  0  0
 23 30  1  0  0  0
 23 24  1  0  0  0
 24 25  2  0  0  0
 25 26  1  0  0  0
 26 27  2  0  0  0
 27 28  1  0  0  0
 28 29  2  0  0  0
 29 24  1  0  0  0
 30 20  2  0  0  0
  3 31  1  0  0  0
  5 32  1  0  0  0
  6 33  1  0  0  0
 14 34  1  0  0  0
 14 35  1  0  0  0
 15 36  1  0  0  0
 15 37  1  0  0  0
 17 38  1  0  0  0
 17 39  1  0  0  0
 18 40  1  0  0  0
 18 41  1  0  0  0
 19 42  1  0  0  0
 21 43  1  0  0  0
 25 44  1  0  0  0
 26 45  1  0  0  0
 27 46  1  0  0  0
 28 47  1  0  0  0
 29 48  1  0  0  0
 30 49  1  0  0  0
M  END
> <pIC50>
5.081

$$$$
